<?xml version="1.0" encoding="UTF-8"?>

            <routes xmlns:xsi="http://www.w3.org/2001/XMLSchema-instance">
   
            <vType accel="1.0" decel="4.5" id="standard_car" length="5.0" minGap="2.5" maxSpeed="25" sigma="0.5" />) 
            
            <route id="N2W" edges="-125514711 125514713"/>
            <route id="N2S" edges="-125514711 -125514709"/>
            <route id="N2E" edges="-125514711 -548975769"/>     
            <route id="W2N" edges="-125514713 125514711"/>
            <route id="W2E" edges="-125514713 -548975769"/>
            <route id="W2S" edges="-125514711 -125514709"/>
            <route id="S2W" edges="125514709 125514713"/>
            <route id="S2N" edges="125514709 125514711"/>
            <route id="S2E" edges="-125514711 -548975769"/>
            <route id="E2S" edges="548975769 -125514709"/>
            <route id="E2W" edges="548975769 125514713"/>
            <route id="E2N" edges="548975769 125514711"/>
            
<vehicle id="W2E0" type="standard_car" route="W2E" depart="26.220874296524617" departLane="random" departSpeed="10" />
<vehicle id="S2N1" type="standard_car" route="S2N" depart="30.8990938784377" departLane="random" departSpeed="10" />
<vehicle id="W2E2" type="standard_car" route="W2E" depart="32.3932551433016" departLane="random" departSpeed="10" />
<vehicle id="E2N3" type="standard_car" route="E2N" depart="34.18226634305771" departLane="random" departSpeed="10" />
<vehicle id="S2N4" type="standard_car" route="S2N" depart="44.640955016929205" departLane="random" departSpeed="10" />
<vehicle id="S2E5" type="standard_car" route="S2E" depart="52.137121916477405" departLane="random" departSpeed="10" />
<vehicle id="W2S6" type="standard_car" route="W2S" depart="63.200963071807045" departLane="random" departSpeed="10" />
<vehicle id="N2S7" type="standard_car" route="N2S" depart="68.4954667111119" departLane="random" departSpeed="10" />
<vehicle id="W2N8" type="standard_car" route="W2N" depart="69.04054126241324" departLane="random" departSpeed="10" />
<vehicle id="E2W9" type="standard_car" route="E2W" depart="69.17777914580377" departLane="random" departSpeed="10" />
<vehicle id="N2S10" type="standard_car" route="N2S" depart="76.43319102037383" departLane="random" departSpeed="10" />
<vehicle id="W2E11" type="standard_car" route="W2E" depart="83.09013747116603" departLane="random" departSpeed="10" />
<vehicle id="N2S12" type="standard_car" route="N2S" depart="85.54826400242844" departLane="random" departSpeed="10" />
<vehicle id="E2W13" type="standard_car" route="E2W" depart="85.63670817834131" departLane="random" departSpeed="10" />
<vehicle id="E2W14" type="standard_car" route="E2W" depart="88.34109456877654" departLane="random" departSpeed="10" />
<vehicle id="E2W15" type="standard_car" route="E2W" depart="88.56476587441881" departLane="random" departSpeed="10" />
<vehicle id="S2N16" type="standard_car" route="S2N" depart="93.05212849647884" departLane="random" departSpeed="10" />
<vehicle id="N2S17" type="standard_car" route="N2S" depart="101.75079813641712" departLane="random" departSpeed="10" />
<vehicle id="W2S18" type="standard_car" route="W2S" depart="103.636441186438" departLane="random" departSpeed="10" />
<vehicle id="E2W19" type="standard_car" route="E2W" depart="111.82025411070869" departLane="random" departSpeed="10" />
<vehicle id="N2S20" type="standard_car" route="N2S" depart="112.5771926198349" departLane="random" departSpeed="10" />
<vehicle id="W2S21" type="standard_car" route="W2S" depart="112.73751192129944" departLane="random" departSpeed="10" />
<vehicle id="S2N22" type="standard_car" route="S2N" depart="122.3101626519227" departLane="random" departSpeed="10" />
<vehicle id="S2N23" type="standard_car" route="S2N" depart="125.96058730600494" departLane="random" departSpeed="10" />
<vehicle id="W2E24" type="standard_car" route="W2E" depart="126.12807996963346" departLane="random" departSpeed="10" />
<vehicle id="N2S25" type="standard_car" route="N2S" depart="128.54169095783885" departLane="random" departSpeed="10" />
<vehicle id="N2S26" type="standard_car" route="N2S" depart="130.71661099469128" departLane="random" departSpeed="10" />
<vehicle id="E2W27" type="standard_car" route="E2W" depart="131.9590109625366" departLane="random" departSpeed="10" />
<vehicle id="N2S28" type="standard_car" route="N2S" depart="135.0344180286764" departLane="random" departSpeed="10" />
<vehicle id="N2S29" type="standard_car" route="N2S" depart="138.62396155500974" departLane="random" departSpeed="10" />
<vehicle id="N2E30" type="standard_car" route="N2E" depart="144.19200154292255" departLane="random" departSpeed="10" />
<vehicle id="S2N31" type="standard_car" route="S2N" depart="148.23786184911958" departLane="random" departSpeed="10" />
<vehicle id="N2S32" type="standard_car" route="N2S" depart="148.36719821050735" departLane="random" departSpeed="10" />
<vehicle id="W2N33" type="standard_car" route="W2N" depart="148.9793140104733" departLane="random" departSpeed="10" />
<vehicle id="W2E34" type="standard_car" route="W2E" depart="152.8413089678971" departLane="random" departSpeed="10" />
<vehicle id="N2E35" type="standard_car" route="N2E" depart="153.1911297358465" departLane="random" departSpeed="10" />
<vehicle id="W2E36" type="standard_car" route="W2E" depart="153.78088114064462" departLane="random" departSpeed="10" />
<vehicle id="E2W37" type="standard_car" route="E2W" depart="161.79637641266396" departLane="random" departSpeed="10" />
<vehicle id="S2N38" type="standard_car" route="S2N" depart="163.92316292924204" departLane="random" departSpeed="10" />
<vehicle id="N2S39" type="standard_car" route="N2S" depart="164.77384604839776" departLane="random" departSpeed="10" />
<vehicle id="W2E40" type="standard_car" route="W2E" depart="164.84059481062937" departLane="random" departSpeed="10" />
<vehicle id="E2N41" type="standard_car" route="E2N" depart="169.67917923610258" departLane="random" departSpeed="10" />
<vehicle id="S2N42" type="standard_car" route="S2N" depart="170.04698960057175" departLane="random" departSpeed="10" />
<vehicle id="E2W43" type="standard_car" route="E2W" depart="171.37954865235932" departLane="random" departSpeed="10" />
<vehicle id="E2W44" type="standard_car" route="E2W" depart="171.81806919947533" departLane="random" departSpeed="10" />
<vehicle id="S2N45" type="standard_car" route="S2N" depart="173.66369328356075" departLane="random" departSpeed="10" />
<vehicle id="E2S46" type="standard_car" route="E2S" depart="182.41400093573148" departLane="random" departSpeed="10" />
<vehicle id="S2N47" type="standard_car" route="S2N" depart="187.52984396679753" departLane="random" departSpeed="10" />
<vehicle id="E2N48" type="standard_car" route="E2N" depart="193.3124849079099" departLane="random" departSpeed="10" />
<vehicle id="W2E49" type="standard_car" route="W2E" depart="207.62905137337611" departLane="random" departSpeed="10" />
<vehicle id="E2W50" type="standard_car" route="E2W" depart="209.34588264973934" departLane="random" departSpeed="10" />
<vehicle id="E2W51" type="standard_car" route="E2W" depart="210.34651633949824" departLane="random" departSpeed="10" />
<vehicle id="S2N52" type="standard_car" route="S2N" depart="212.1345472883562" departLane="random" departSpeed="10" />
<vehicle id="S2E53" type="standard_car" route="S2E" depart="215.73965449123955" departLane="random" departSpeed="10" />
<vehicle id="W2N54" type="standard_car" route="W2N" depart="218.18704037123857" departLane="random" departSpeed="10" />
<vehicle id="W2S55" type="standard_car" route="W2S" depart="222.28548384170455" departLane="random" departSpeed="10" />
<vehicle id="W2E56" type="standard_car" route="W2E" depart="232.3276725866593" departLane="random" departSpeed="10" />
<vehicle id="E2W57" type="standard_car" route="E2W" depart="239.95530547035227" departLane="random" departSpeed="10" />
<vehicle id="N2W58" type="standard_car" route="N2W" depart="242.73597702125622" departLane="random" departSpeed="10" />
<vehicle id="S2N59" type="standard_car" route="S2N" depart="245.60213137556715" departLane="random" departSpeed="10" />
<vehicle id="E2W60" type="standard_car" route="E2W" depart="249.42500276428876" departLane="random" departSpeed="10" />
<vehicle id="S2N61" type="standard_car" route="S2N" depart="249.85997927324584" departLane="random" departSpeed="10" />
<vehicle id="W2E62" type="standard_car" route="W2E" depart="254.4963361602552" departLane="random" departSpeed="10" />
<vehicle id="E2W63" type="standard_car" route="E2W" depart="256.7713579707374" departLane="random" departSpeed="10" />
<vehicle id="E2N64" type="standard_car" route="E2N" depart="275.76379227682855" departLane="random" departSpeed="10" />
<vehicle id="E2W65" type="standard_car" route="E2W" depart="286.94287511113913" departLane="random" departSpeed="10" />
<vehicle id="W2E66" type="standard_car" route="W2E" depart="292.4501543449" departLane="random" departSpeed="10" />
<vehicle id="W2E67" type="standard_car" route="W2E" depart="294.3599027454513" departLane="random" departSpeed="10" />
<vehicle id="W2E68" type="standard_car" route="W2E" depart="294.5763112879858" departLane="random" departSpeed="10" />
<vehicle id="E2W69" type="standard_car" route="E2W" depart="313.0661565597083" departLane="random" departSpeed="10" />
<vehicle id="W2E70" type="standard_car" route="W2E" depart="329.94600530339847" departLane="random" departSpeed="10" />
<vehicle id="W2E71" type="standard_car" route="W2E" depart="330.46747530932123" departLane="random" departSpeed="10" />
<vehicle id="E2N72" type="standard_car" route="E2N" depart="341.87921318751603" departLane="random" departSpeed="10" />
<vehicle id="W2E73" type="standard_car" route="W2E" depart="348.9854597146986" departLane="random" departSpeed="10" />
<vehicle id="W2E74" type="standard_car" route="W2E" depart="400.0" departLane="random" departSpeed="10" />
</routes>
