<?xml version="1.0" encoding="UTF-8"?>

            <routes xmlns:xsi="http://www.w3.org/2001/XMLSchema-instance">
   
            <vType accel="1.0" decel="4.5" id="standard_car" length="5.0" minGap="2.5" maxSpeed="25" sigma="0.5" />) 
            
            <route id="N2W" edges="-125514711 125514713"/>
            <route id="N2S" edges="-125514711 -125514709"/>
            <route id="N2E" edges="-125514711 -548975769"/>     
            <route id="W2N" edges="-125514713 125514711"/>
            <route id="W2E" edges="-125514713 -548975769"/>
            <route id="W2S" edges="-125514711 -125514709"/>
            <route id="S2W" edges="125514709 125514713"/>
            <route id="S2N" edges="125514709 125514711"/>
            <route id="S2E" edges="-125514711 -548975769"/>
            <route id="E2S" edges="548975769 -125514709"/>
            <route id="E2W" edges="548975769 125514713"/>
            <route id="E2N" edges="548975769 125514711"/>
            
<vehicle id="S2N0" type="standard_car" route="S2N" depart="27.55261084642575" departLane="random" departSpeed="10" />
<vehicle id="W2E1" type="standard_car" route="W2E" depart="31.630100927637965" departLane="random" departSpeed="10" />
<vehicle id="N2S2" type="standard_car" route="N2S" depart="32.42028642765653" departLane="random" departSpeed="10" />
<vehicle id="E2W3" type="standard_car" route="E2W" depart="37.62367511098346" departLane="random" departSpeed="10" />
<vehicle id="N2S4" type="standard_car" route="N2S" depart="42.33179208892046" departLane="random" departSpeed="10" />
<vehicle id="E2W5" type="standard_car" route="E2W" depart="62.151539642931844" departLane="random" departSpeed="10" />
<vehicle id="N2W6" type="standard_car" route="N2W" depart="64.09803269251616" departLane="random" departSpeed="10" />
<vehicle id="S2N7" type="standard_car" route="S2N" depart="64.95166410863474" departLane="random" departSpeed="10" />
<vehicle id="E2W8" type="standard_car" route="E2W" depart="66.2565703461239" departLane="random" departSpeed="10" />
<vehicle id="W2E9" type="standard_car" route="W2E" depart="72.8871171120335" departLane="random" departSpeed="10" />
<vehicle id="S2N10" type="standard_car" route="S2N" depart="78.3206094024643" departLane="random" departSpeed="10" />
<vehicle id="W2S11" type="standard_car" route="W2S" depart="80.728897315825" departLane="random" departSpeed="10" />
<vehicle id="N2E12" type="standard_car" route="N2E" depart="81.28392142776286" departLane="random" departSpeed="10" />
<vehicle id="S2N13" type="standard_car" route="S2N" depart="81.6553409145786" departLane="random" departSpeed="10" />
<vehicle id="E2W14" type="standard_car" route="E2W" depart="86.06580314678567" departLane="random" departSpeed="10" />
<vehicle id="S2N15" type="standard_car" route="S2N" depart="87.49707969276126" departLane="random" departSpeed="10" />
<vehicle id="E2N16" type="standard_car" route="E2N" depart="90.39959385791661" departLane="random" departSpeed="10" />
<vehicle id="S2N17" type="standard_car" route="S2N" depart="95.3176027086283" departLane="random" departSpeed="10" />
<vehicle id="W2E18" type="standard_car" route="W2E" depart="95.40071118879645" departLane="random" departSpeed="10" />
<vehicle id="W2E19" type="standard_car" route="W2E" depart="96.04664328692247" departLane="random" departSpeed="10" />
<vehicle id="S2N20" type="standard_car" route="S2N" depart="97.35874852583733" departLane="random" departSpeed="10" />
<vehicle id="W2E21" type="standard_car" route="W2E" depart="101.15491158567534" departLane="random" departSpeed="10" />
<vehicle id="W2E22" type="standard_car" route="W2E" depart="104.40647626231205" departLane="random" departSpeed="10" />
<vehicle id="E2W23" type="standard_car" route="E2W" depart="105.17686676224565" departLane="random" departSpeed="10" />
<vehicle id="N2E24" type="standard_car" route="N2E" depart="109.44920651377683" departLane="random" departSpeed="10" />
<vehicle id="E2W25" type="standard_car" route="E2W" depart="111.66778141506035" departLane="random" departSpeed="10" />
<vehicle id="W2E26" type="standard_car" route="W2E" depart="112.67588812080065" departLane="random" departSpeed="10" />
<vehicle id="N2W27" type="standard_car" route="N2W" depart="114.37919915572716" departLane="random" departSpeed="10" />
<vehicle id="S2N28" type="standard_car" route="S2N" depart="114.663870209628" departLane="random" departSpeed="10" />
<vehicle id="S2E29" type="standard_car" route="S2E" depart="117.49243491628705" departLane="random" departSpeed="10" />
<vehicle id="N2W30" type="standard_car" route="N2W" depart="122.04816218556584" departLane="random" departSpeed="10" />
<vehicle id="E2W31" type="standard_car" route="E2W" depart="125.86791867130447" departLane="random" departSpeed="10" />
<vehicle id="S2N32" type="standard_car" route="S2N" depart="128.94562702352346" departLane="random" departSpeed="10" />
<vehicle id="N2E33" type="standard_car" route="N2E" depart="128.98401652563766" departLane="random" departSpeed="10" />
<vehicle id="S2N34" type="standard_car" route="S2N" depart="131.68773018167212" departLane="random" departSpeed="10" />
<vehicle id="W2E35" type="standard_car" route="W2E" depart="132.49678267469204" departLane="random" departSpeed="10" />
<vehicle id="W2E36" type="standard_car" route="W2E" depart="134.83139601730554" departLane="random" departSpeed="10" />
<vehicle id="N2S37" type="standard_car" route="N2S" depart="136.9058928139865" departLane="random" departSpeed="10" />
<vehicle id="E2W38" type="standard_car" route="E2W" depart="137.40075745318586" departLane="random" departSpeed="10" />
<vehicle id="W2E39" type="standard_car" route="W2E" depart="138.63711813770857" departLane="random" departSpeed="10" />
<vehicle id="N2S40" type="standard_car" route="N2S" depart="141.39574951105394" departLane="random" departSpeed="10" />
<vehicle id="S2N41" type="standard_car" route="S2N" depart="144.2495997699833" departLane="random" departSpeed="10" />
<vehicle id="N2E42" type="standard_car" route="N2E" depart="144.44012956456692" departLane="random" departSpeed="10" />
<vehicle id="N2S43" type="standard_car" route="N2S" depart="147.791458864734" departLane="random" departSpeed="10" />
<vehicle id="E2W44" type="standard_car" route="E2W" depart="149.3038516158374" departLane="random" departSpeed="10" />
<vehicle id="S2N45" type="standard_car" route="S2N" depart="150.29257804994495" departLane="random" departSpeed="10" />
<vehicle id="S2E46" type="standard_car" route="S2E" depart="152.19552338589625" departLane="random" departSpeed="10" />
<vehicle id="E2W47" type="standard_car" route="E2W" depart="152.44243853389304" departLane="random" departSpeed="10" />
<vehicle id="E2W48" type="standard_car" route="E2W" depart="157.71987063400897" departLane="random" departSpeed="10" />
<vehicle id="E2S49" type="standard_car" route="E2S" depart="157.93868375189572" departLane="random" departSpeed="10" />
<vehicle id="W2S50" type="standard_car" route="W2S" depart="161.7778052435994" departLane="random" departSpeed="10" />
<vehicle id="N2S51" type="standard_car" route="N2S" depart="162.81791123178215" departLane="random" departSpeed="10" />
<vehicle id="E2W52" type="standard_car" route="E2W" depart="165.38126966812672" departLane="random" departSpeed="10" />
<vehicle id="S2N53" type="standard_car" route="S2N" depart="173.11687493396653" departLane="random" departSpeed="10" />
<vehicle id="W2E54" type="standard_car" route="W2E" depart="179.36405970879358" departLane="random" departSpeed="10" />
<vehicle id="W2S55" type="standard_car" route="W2S" depart="184.06195416998588" departLane="random" departSpeed="10" />
<vehicle id="N2S56" type="standard_car" route="N2S" depart="184.8684094618746" departLane="random" departSpeed="10" />
<vehicle id="W2E57" type="standard_car" route="W2E" depart="186.96892843768026" departLane="random" departSpeed="10" />
<vehicle id="W2E58" type="standard_car" route="W2E" depart="187.83288016389642" departLane="random" departSpeed="10" />
<vehicle id="E2W59" type="standard_car" route="E2W" depart="192.1600421418041" departLane="random" departSpeed="10" />
<vehicle id="N2E60" type="standard_car" route="N2E" depart="205.26362788488393" departLane="random" departSpeed="10" />
<vehicle id="E2W61" type="standard_car" route="E2W" depart="207.6439635218374" departLane="random" departSpeed="10" />
<vehicle id="S2N62" type="standard_car" route="S2N" depart="210.0039002613018" departLane="random" departSpeed="10" />
<vehicle id="S2E63" type="standard_car" route="S2E" depart="210.71206059248104" departLane="random" departSpeed="10" />
<vehicle id="W2E64" type="standard_car" route="W2E" depart="217.44298026465572" departLane="random" departSpeed="10" />
<vehicle id="N2W65" type="standard_car" route="N2W" depart="222.88845102916653" departLane="random" departSpeed="10" />
<vehicle id="W2E66" type="standard_car" route="W2E" depart="236.37281990681913" departLane="random" departSpeed="10" />
<vehicle id="S2E67" type="standard_car" route="S2E" depart="237.3374545188663" departLane="random" departSpeed="10" />
<vehicle id="N2S68" type="standard_car" route="N2S" depart="243.4651092131675" departLane="random" departSpeed="10" />
<vehicle id="W2E69" type="standard_car" route="W2E" depart="256.73602374438764" departLane="random" departSpeed="10" />
<vehicle id="E2W70" type="standard_car" route="E2W" depart="269.9762283125128" departLane="random" departSpeed="10" />
<vehicle id="E2W71" type="standard_car" route="E2W" depart="293.5910457442135" departLane="random" departSpeed="10" />
<vehicle id="W2E72" type="standard_car" route="W2E" depart="295.7825726120053" departLane="random" departSpeed="10" />
<vehicle id="W2E73" type="standard_car" route="W2E" depart="384.7667639910853" departLane="random" departSpeed="10" />
<vehicle id="W2E74" type="standard_car" route="W2E" depart="400.0" departLane="random" departSpeed="10" />
</routes>
