<?xml version="1.0" encoding="UTF-8"?>

            <routes xmlns:xsi="http://www.w3.org/2001/XMLSchema-instance">
   
            <vType accel="1.0" decel="4.5" id="standard_car" length="5.0" minGap="2.5" maxSpeed="25" sigma="0.5" />) 
            
            <route id="N2W" edges="-125514711 125514713"/>
            <route id="N2S" edges="-125514711 -125514709"/>
            <route id="N2E" edges="-125514711 -548975769"/>     
            <route id="W2N" edges="-125514713 125514711"/>
            <route id="W2E" edges="-125514713 -548975769"/>
            <route id="W2S" edges="-125514711 -125514709"/>
            <route id="S2W" edges="125514709 125514713"/>
            <route id="S2N" edges="125514709 125514711"/>
            <route id="S2E" edges="-125514711 -548975769"/>
            <route id="E2S" edges="548975769 -125514709"/>
            <route id="E2W" edges="548975769 125514713"/>
            <route id="E2N" edges="548975769 125514711"/>
            
<vehicle id="E2W0" type="standard_car" route="E2W" depart="26.17925664599149" departLane="random" departSpeed="10" />
<vehicle id="E2W1" type="standard_car" route="E2W" depart="30.763853898645554" departLane="random" departSpeed="10" />
<vehicle id="E2W2" type="standard_car" route="E2W" depart="35.25214207476391" departLane="random" departSpeed="10" />
<vehicle id="S2N3" type="standard_car" route="S2N" depart="40.46172070950391" departLane="random" departSpeed="10" />
<vehicle id="S2N4" type="standard_car" route="S2N" depart="40.528180509096075" departLane="random" departSpeed="10" />
<vehicle id="N2S5" type="standard_car" route="N2S" depart="46.62506118903207" departLane="random" departSpeed="10" />
<vehicle id="N2S6" type="standard_car" route="N2S" depart="54.88625473851069" departLane="random" departSpeed="10" />
<vehicle id="N2S7" type="standard_car" route="N2S" depart="57.14636976104941" departLane="random" departSpeed="10" />
<vehicle id="E2W8" type="standard_car" route="E2W" depart="61.65600844996576" departLane="random" departSpeed="10" />
<vehicle id="S2N9" type="standard_car" route="S2N" depart="71.58745163212465" departLane="random" departSpeed="10" />
<vehicle id="N2E10" type="standard_car" route="N2E" depart="77.33234976211219" departLane="random" departSpeed="10" />
<vehicle id="N2S11" type="standard_car" route="N2S" depart="84.90250903057218" departLane="random" departSpeed="10" />
<vehicle id="N2S12" type="standard_car" route="N2S" depart="86.80493330348615" departLane="random" departSpeed="10" />
<vehicle id="W2E13" type="standard_car" route="W2E" depart="88.02778176520685" departLane="random" departSpeed="10" />
<vehicle id="N2S14" type="standard_car" route="N2S" depart="90.73167010055298" departLane="random" departSpeed="10" />
<vehicle id="E2W15" type="standard_car" route="E2W" depart="95.49474305650614" departLane="random" departSpeed="10" />
<vehicle id="W2E16" type="standard_car" route="W2E" depart="100.77506459556149" departLane="random" departSpeed="10" />
<vehicle id="N2S17" type="standard_car" route="N2S" depart="101.47591821399358" departLane="random" departSpeed="10" />
<vehicle id="E2W18" type="standard_car" route="E2W" depart="102.02437922947416" departLane="random" departSpeed="10" />
<vehicle id="W2E19" type="standard_car" route="W2E" depart="105.017480649194" departLane="random" departSpeed="10" />
<vehicle id="W2E20" type="standard_car" route="W2E" depart="106.75370839897309" departLane="random" departSpeed="10" />
<vehicle id="N2S21" type="standard_car" route="N2S" depart="108.28557699244357" departLane="random" departSpeed="10" />
<vehicle id="N2S22" type="standard_car" route="N2S" depart="111.65246655648254" departLane="random" departSpeed="10" />
<vehicle id="W2E23" type="standard_car" route="W2E" depart="115.4037951603733" departLane="random" departSpeed="10" />
<vehicle id="E2W24" type="standard_car" route="E2W" depart="124.00862841400941" departLane="random" departSpeed="10" />
<vehicle id="N2S25" type="standard_car" route="N2S" depart="128.833724725248" departLane="random" departSpeed="10" />
<vehicle id="W2E26" type="standard_car" route="W2E" depart="129.2431834241754" departLane="random" departSpeed="10" />
<vehicle id="S2N27" type="standard_car" route="S2N" depart="129.43896757352042" departLane="random" departSpeed="10" />
<vehicle id="N2S28" type="standard_car" route="N2S" depart="131.22915259572622" departLane="random" departSpeed="10" />
<vehicle id="N2S29" type="standard_car" route="N2S" depart="132.5369987383866" departLane="random" departSpeed="10" />
<vehicle id="N2S30" type="standard_car" route="N2S" depart="136.77866859677448" departLane="random" departSpeed="10" />
<vehicle id="N2S31" type="standard_car" route="N2S" depart="146.40044086865106" departLane="random" departSpeed="10" />
<vehicle id="S2N32" type="standard_car" route="S2N" depart="149.12166821203797" departLane="random" departSpeed="10" />
<vehicle id="W2E33" type="standard_car" route="W2E" depart="149.44454206301708" departLane="random" departSpeed="10" />
<vehicle id="N2S34" type="standard_car" route="N2S" depart="153.85501972720067" departLane="random" departSpeed="10" />
<vehicle id="N2S35" type="standard_car" route="N2S" depart="154.55725185513523" departLane="random" departSpeed="10" />
<vehicle id="N2S36" type="standard_car" route="N2S" depart="155.67010786675806" departLane="random" departSpeed="10" />
<vehicle id="S2N37" type="standard_car" route="S2N" depart="157.63586177125336" departLane="random" departSpeed="10" />
<vehicle id="N2S38" type="standard_car" route="N2S" depart="158.52415555212994" departLane="random" departSpeed="10" />
<vehicle id="N2S39" type="standard_car" route="N2S" depart="160.70378951660922" departLane="random" departSpeed="10" />
<vehicle id="S2E40" type="standard_car" route="S2E" depart="161.7383471066604" departLane="random" departSpeed="10" />
<vehicle id="S2N41" type="standard_car" route="S2N" depart="162.2553488682198" departLane="random" departSpeed="10" />
<vehicle id="W2E42" type="standard_car" route="W2E" depart="162.27402259942215" departLane="random" departSpeed="10" />
<vehicle id="S2N43" type="standard_car" route="S2N" depart="164.4117445709313" departLane="random" departSpeed="10" />
<vehicle id="S2N44" type="standard_car" route="S2N" depart="166.21192283012172" departLane="random" departSpeed="10" />
<vehicle id="E2N45" type="standard_car" route="E2N" depart="167.13087063249503" departLane="random" departSpeed="10" />
<vehicle id="E2W46" type="standard_car" route="E2W" depart="167.3929759423315" departLane="random" departSpeed="10" />
<vehicle id="W2N47" type="standard_car" route="W2N" depart="167.9096037444402" departLane="random" departSpeed="10" />
<vehicle id="S2N48" type="standard_car" route="S2N" depart="168.56314011128103" departLane="random" departSpeed="10" />
<vehicle id="S2N49" type="standard_car" route="S2N" depart="170.45970433648273" departLane="random" departSpeed="10" />
<vehicle id="W2N50" type="standard_car" route="W2N" depart="174.77887421670735" departLane="random" departSpeed="10" />
<vehicle id="N2S51" type="standard_car" route="N2S" depart="176.68054771120745" departLane="random" departSpeed="10" />
<vehicle id="E2S52" type="standard_car" route="E2S" depart="177.24407245234968" departLane="random" departSpeed="10" />
<vehicle id="N2S53" type="standard_car" route="N2S" depart="181.12090820322524" departLane="random" departSpeed="10" />
<vehicle id="S2N54" type="standard_car" route="S2N" depart="182.025665449367" departLane="random" departSpeed="10" />
<vehicle id="W2E55" type="standard_car" route="W2E" depart="183.455385119019" departLane="random" departSpeed="10" />
<vehicle id="E2W56" type="standard_car" route="E2W" depart="196.563441742089" departLane="random" departSpeed="10" />
<vehicle id="E2W57" type="standard_car" route="E2W" depart="199.74039984437536" departLane="random" departSpeed="10" />
<vehicle id="N2S58" type="standard_car" route="N2S" depart="214.15887111752423" departLane="random" departSpeed="10" />
<vehicle id="N2E59" type="standard_car" route="N2E" depart="215.93800038870472" departLane="random" departSpeed="10" />
<vehicle id="N2S60" type="standard_car" route="N2S" depart="217.80067177860442" departLane="random" departSpeed="10" />
<vehicle id="W2E61" type="standard_car" route="W2E" depart="221.93698545041875" departLane="random" departSpeed="10" />
<vehicle id="E2N62" type="standard_car" route="E2N" depart="232.49456473602538" departLane="random" departSpeed="10" />
<vehicle id="E2W63" type="standard_car" route="E2W" depart="237.278883951596" departLane="random" departSpeed="10" />
<vehicle id="W2S64" type="standard_car" route="W2S" depart="248.61912258464022" departLane="random" departSpeed="10" />
<vehicle id="W2E65" type="standard_car" route="W2E" depart="250.08880463537838" departLane="random" departSpeed="10" />
<vehicle id="S2E66" type="standard_car" route="S2E" depart="254.2627591730702" departLane="random" departSpeed="10" />
<vehicle id="W2E67" type="standard_car" route="W2E" depart="267.5291664517095" departLane="random" departSpeed="10" />
<vehicle id="W2E68" type="standard_car" route="W2E" depart="267.66782996952685" departLane="random" departSpeed="10" />
<vehicle id="E2W69" type="standard_car" route="E2W" depart="272.0213021325651" departLane="random" departSpeed="10" />
<vehicle id="N2S70" type="standard_car" route="N2S" depart="280.67922830971696" departLane="random" departSpeed="10" />
<vehicle id="S2N71" type="standard_car" route="S2N" depart="286.0904238737043" departLane="random" departSpeed="10" />
<vehicle id="S2N72" type="standard_car" route="S2N" depart="307.31037478143315" departLane="random" departSpeed="10" />
<vehicle id="N2S73" type="standard_car" route="N2S" depart="373.0352639275263" departLane="random" departSpeed="10" />
<vehicle id="E2W74" type="standard_car" route="E2W" depart="400.0" departLane="random" departSpeed="10" />
</routes>
