<?xml version="1.0" encoding="UTF-8"?>

            <routes xmlns:xsi="http://www.w3.org/2001/XMLSchema-instance">
   
            <vType accel="1.0" decel="4.5" id="standard_car" length="5.0" minGap="2.5" maxSpeed="25" sigma="0.5" />) 
            
            <route id="N2W" edges="-125514711 125514713"/>
            <route id="N2S" edges="-125514711 -125514709"/>
            <route id="N2E" edges="-125514711 -548975769"/>     
            <route id="W2N" edges="-125514713 125514711"/>
            <route id="W2E" edges="-125514713 -548975769"/>
            <route id="W2S" edges="-125514711 -125514709"/>
            <route id="S2W" edges="125514709 125514713"/>
            <route id="S2N" edges="125514709 125514711"/>
            <route id="S2E" edges="-125514711 -548975769"/>
            <route id="E2S" edges="548975769 -125514709"/>
            <route id="E2W" edges="548975769 125514713"/>
            <route id="E2N" edges="548975769 125514711"/>
            
<vehicle id="W2E0" type="standard_car" route="W2E" depart="4.388858970448874" departLane="random" departSpeed="10" />
<vehicle id="W2E1" type="standard_car" route="W2E" depart="10.548933362354145" departLane="random" departSpeed="10" />
<vehicle id="N2S2" type="standard_car" route="N2S" depart="14.26131882809461" departLane="random" departSpeed="10" />
<vehicle id="S2N3" type="standard_car" route="S2N" depart="15.69854216728388" departLane="random" departSpeed="10" />
<vehicle id="S2N4" type="standard_car" route="S2N" depart="20.225966273477876" departLane="random" departSpeed="10" />
<vehicle id="W2E5" type="standard_car" route="W2E" depart="27.771506743483485" departLane="random" departSpeed="10" />
<vehicle id="E2W6" type="standard_car" route="E2W" depart="28.329737692287576" departLane="random" departSpeed="10" />
<vehicle id="N2S7" type="standard_car" route="N2S" depart="30.058715194675983" departLane="random" departSpeed="10" />
<vehicle id="W2E8" type="standard_car" route="W2E" depart="30.17293546132301" departLane="random" departSpeed="10" />
<vehicle id="W2E9" type="standard_car" route="W2E" depart="31.53374801420504" departLane="random" departSpeed="10" />
<vehicle id="W2E10" type="standard_car" route="W2E" depart="31.632584157532417" departLane="random" departSpeed="10" />
<vehicle id="W2E11" type="standard_car" route="W2E" depart="33.36920428094642" departLane="random" departSpeed="10" />
<vehicle id="E2W12" type="standard_car" route="E2W" depart="34.52681606316614" departLane="random" departSpeed="10" />
<vehicle id="E2W13" type="standard_car" route="E2W" depart="36.661520834217185" departLane="random" departSpeed="10" />
<vehicle id="E2W14" type="standard_car" route="E2W" depart="39.24538869705538" departLane="random" departSpeed="10" />
<vehicle id="N2S15" type="standard_car" route="N2S" depart="40.74610848913868" departLane="random" departSpeed="10" />
<vehicle id="E2W16" type="standard_car" route="E2W" depart="47.21629852743673" departLane="random" departSpeed="10" />
<vehicle id="N2S17" type="standard_car" route="N2S" depart="50.807307281577955" departLane="random" departSpeed="10" />
<vehicle id="W2E18" type="standard_car" route="W2E" depart="52.29913345879005" departLane="random" departSpeed="10" />
<vehicle id="W2E19" type="standard_car" route="W2E" depart="52.886300006642564" departLane="random" departSpeed="10" />
<vehicle id="S2N20" type="standard_car" route="S2N" depart="52.92121807772658" departLane="random" departSpeed="10" />
<vehicle id="N2S21" type="standard_car" route="N2S" depart="54.02904158255772" departLane="random" departSpeed="10" />
<vehicle id="S2N22" type="standard_car" route="S2N" depart="57.371806300786645" departLane="random" departSpeed="10" />
<vehicle id="N2S23" type="standard_car" route="N2S" depart="58.49610107022527" departLane="random" departSpeed="10" />
<vehicle id="N2S24" type="standard_car" route="N2S" depart="60.66317979116695" departLane="random" departSpeed="10" />
<vehicle id="W2E25" type="standard_car" route="W2E" depart="65.30489123301194" departLane="random" departSpeed="10" />
<vehicle id="E2W26" type="standard_car" route="E2W" depart="67.45492194431986" departLane="random" departSpeed="10" />
<vehicle id="W2E27" type="standard_car" route="W2E" depart="67.45616588393395" departLane="random" departSpeed="10" />
<vehicle id="S2N28" type="standard_car" route="S2N" depart="69.77160951652631" departLane="random" departSpeed="10" />
<vehicle id="W2E29" type="standard_car" route="W2E" depart="70.81240294775318" departLane="random" departSpeed="10" />
<vehicle id="N2S30" type="standard_car" route="N2S" depart="72.74502243528474" departLane="random" departSpeed="10" />
<vehicle id="E2W31" type="standard_car" route="E2W" depart="73.56848708396542" departLane="random" departSpeed="10" />
<vehicle id="E2W32" type="standard_car" route="E2W" depart="75.31356992424948" departLane="random" departSpeed="10" />
<vehicle id="E2W33" type="standard_car" route="E2W" depart="75.56052828432767" departLane="random" departSpeed="10" />
<vehicle id="E2W34" type="standard_car" route="E2W" depart="75.95433687091185" departLane="random" departSpeed="10" />
<vehicle id="S2N35" type="standard_car" route="S2N" depart="79.3528365362179" departLane="random" departSpeed="10" />
<vehicle id="N2S36" type="standard_car" route="N2S" depart="79.55734324858177" departLane="random" departSpeed="10" />
<vehicle id="W2E37" type="standard_car" route="W2E" depart="81.43859935056632" departLane="random" departSpeed="10" />
<vehicle id="E2W38" type="standard_car" route="E2W" depart="81.84645775856745" departLane="random" departSpeed="10" />
<vehicle id="S2N39" type="standard_car" route="S2N" depart="82.47625490379883" departLane="random" departSpeed="10" />
<vehicle id="N2S40" type="standard_car" route="N2S" depart="83.1813283251334" departLane="random" departSpeed="10" />
<vehicle id="S2N41" type="standard_car" route="S2N" depart="83.51255739148061" departLane="random" departSpeed="10" />
<vehicle id="S2N42" type="standard_car" route="S2N" depart="85.17719830941502" departLane="random" departSpeed="10" />
<vehicle id="W2E43" type="standard_car" route="W2E" depart="86.39122048065803" departLane="random" departSpeed="10" />
<vehicle id="N2S44" type="standard_car" route="N2S" depart="87.50973024850124" departLane="random" departSpeed="10" />
<vehicle id="E2W45" type="standard_car" route="E2W" depart="87.6858721255121" departLane="random" departSpeed="10" />
<vehicle id="S2N46" type="standard_car" route="S2N" depart="89.22606696412271" departLane="random" departSpeed="10" />
<vehicle id="S2N47" type="standard_car" route="S2N" depart="89.25535501142592" departLane="random" departSpeed="10" />
<vehicle id="S2N48" type="standard_car" route="S2N" depart="90.00209479833612" departLane="random" departSpeed="10" />
<vehicle id="W2E49" type="standard_car" route="W2E" depart="91.59221685649862" departLane="random" departSpeed="10" />
<vehicle id="E2W50" type="standard_car" route="E2W" depart="93.42033983335848" departLane="random" departSpeed="10" />
<vehicle id="N2S51" type="standard_car" route="N2S" depart="93.997775033808" departLane="random" departSpeed="10" />
<vehicle id="S2N52" type="standard_car" route="S2N" depart="94.23227761944185" departLane="random" departSpeed="10" />
<vehicle id="W2E53" type="standard_car" route="W2E" depart="95.42966509553435" departLane="random" departSpeed="10" />
<vehicle id="N2S54" type="standard_car" route="N2S" depart="96.61618722052957" departLane="random" departSpeed="10" />
<vehicle id="E2W55" type="standard_car" route="E2W" depart="99.36447117738727" departLane="random" departSpeed="10" />
<vehicle id="W2E56" type="standard_car" route="W2E" depart="99.41074886358415" departLane="random" departSpeed="10" />
<vehicle id="N2S57" type="standard_car" route="N2S" depart="100.74945035674656" departLane="random" departSpeed="10" />
<vehicle id="E2W58" type="standard_car" route="E2W" depart="101.47320489502086" departLane="random" departSpeed="10" />
<vehicle id="S2N59" type="standard_car" route="S2N" depart="102.1410106345607" departLane="random" departSpeed="10" />
<vehicle id="S2N60" type="standard_car" route="S2N" depart="102.84148278158465" departLane="random" departSpeed="10" />
<vehicle id="S2N61" type="standard_car" route="S2N" depart="103.15669665290963" departLane="random" departSpeed="10" />
<vehicle id="S2N62" type="standard_car" route="S2N" depart="103.18195518277122" departLane="random" departSpeed="10" />
<vehicle id="W2E63" type="standard_car" route="W2E" depart="103.27069063562904" departLane="random" departSpeed="10" />
<vehicle id="S2N64" type="standard_car" route="S2N" depart="103.67467598966692" departLane="random" departSpeed="10" />
<vehicle id="S2N65" type="standard_car" route="S2N" depart="104.55005053672464" departLane="random" departSpeed="10" />
<vehicle id="N2S66" type="standard_car" route="N2S" depart="105.11036830786493" departLane="random" departSpeed="10" />
<vehicle id="E2W67" type="standard_car" route="E2W" depart="105.87057036628205" departLane="random" departSpeed="10" />
<vehicle id="W2E68" type="standard_car" route="W2E" depart="106.96069556136804" departLane="random" departSpeed="10" />
<vehicle id="W2E69" type="standard_car" route="W2E" depart="107.19365084143432" departLane="random" departSpeed="10" />
<vehicle id="W2E70" type="standard_car" route="W2E" depart="107.57546254816337" departLane="random" departSpeed="10" />
<vehicle id="S2N71" type="standard_car" route="S2N" depart="109.12543345616602" departLane="random" departSpeed="10" />
<vehicle id="N2S72" type="standard_car" route="N2S" depart="111.70410393405817" departLane="random" departSpeed="10" />
<vehicle id="N2S73" type="standard_car" route="N2S" depart="111.98431603413715" departLane="random" departSpeed="10" />
<vehicle id="E2W74" type="standard_car" route="E2W" depart="112.23950179973183" departLane="random" departSpeed="10" />
<vehicle id="S2N75" type="standard_car" route="S2N" depart="116.14519556882759" departLane="random" departSpeed="10" />
<vehicle id="N2S76" type="standard_car" route="N2S" depart="116.92913383467794" departLane="random" departSpeed="10" />
<vehicle id="W2E77" type="standard_car" route="W2E" depart="117.00687847871313" departLane="random" departSpeed="10" />
<vehicle id="W2E78" type="standard_car" route="W2E" depart="117.85487475530728" departLane="random" departSpeed="10" />
<vehicle id="W2E79" type="standard_car" route="W2E" depart="118.4572051501005" departLane="random" departSpeed="10" />
<vehicle id="N2S80" type="standard_car" route="N2S" depart="119.56744922792379" departLane="random" departSpeed="10" />
<vehicle id="S2N81" type="standard_car" route="S2N" depart="119.87394998532265" departLane="random" departSpeed="10" />
<vehicle id="N2S82" type="standard_car" route="N2S" depart="120.89062980164601" departLane="random" departSpeed="10" />
<vehicle id="E2W83" type="standard_car" route="E2W" depart="123.44371391136136" departLane="random" departSpeed="10" />
<vehicle id="N2S84" type="standard_car" route="N2S" depart="124.91848968295933" departLane="random" departSpeed="10" />
<vehicle id="S2N85" type="standard_car" route="S2N" depart="125.11569155158581" departLane="random" departSpeed="10" />
<vehicle id="W2E86" type="standard_car" route="W2E" depart="125.38511966905058" departLane="random" departSpeed="10" />
<vehicle id="W2E87" type="standard_car" route="W2E" depart="125.66668159830466" departLane="random" departSpeed="10" />
<vehicle id="E2W88" type="standard_car" route="E2W" depart="126.38415880602571" departLane="random" departSpeed="10" />
<vehicle id="N2S89" type="standard_car" route="N2S" depart="127.36438415904067" departLane="random" departSpeed="10" />
<vehicle id="S2N90" type="standard_car" route="S2N" depart="128.7640630551197" departLane="random" departSpeed="10" />
<vehicle id="E2W91" type="standard_car" route="E2W" depart="131.99078373959543" departLane="random" departSpeed="10" />
<vehicle id="W2E92" type="standard_car" route="W2E" depart="132.25933783755903" departLane="random" departSpeed="10" />
<vehicle id="S2N93" type="standard_car" route="S2N" depart="133.3866051619406" departLane="random" departSpeed="10" />
<vehicle id="N2S94" type="standard_car" route="N2S" depart="133.4049973045117" departLane="random" departSpeed="10" />
<vehicle id="W2E95" type="standard_car" route="W2E" depart="133.59699296765766" departLane="random" departSpeed="10" />
<vehicle id="S2N96" type="standard_car" route="S2N" depart="133.75981212092108" departLane="random" departSpeed="10" />
<vehicle id="E2W97" type="standard_car" route="E2W" depart="134.36997736492341" departLane="random" departSpeed="10" />
<vehicle id="W2E98" type="standard_car" route="W2E" depart="135.05489680997087" departLane="random" departSpeed="10" />
<vehicle id="W2E99" type="standard_car" route="W2E" depart="135.40519447223357" departLane="random" departSpeed="10" />
<vehicle id="E2W100" type="standard_car" route="E2W" depart="135.9258238176783" departLane="random" departSpeed="10" />
<vehicle id="W2E101" type="standard_car" route="W2E" depart="138.5657851593869" departLane="random" departSpeed="10" />
<vehicle id="S2N102" type="standard_car" route="S2N" depart="139.97314093298567" departLane="random" departSpeed="10" />
<vehicle id="E2W103" type="standard_car" route="E2W" depart="140.02136264147578" departLane="random" departSpeed="10" />
<vehicle id="E2W104" type="standard_car" route="E2W" depart="142.09147783104822" departLane="random" departSpeed="10" />
<vehicle id="S2N105" type="standard_car" route="S2N" depart="144.30125197294856" departLane="random" departSpeed="10" />
<vehicle id="W2E106" type="standard_car" route="W2E" depart="144.5815345247384" departLane="random" departSpeed="10" />
<vehicle id="W2E107" type="standard_car" route="W2E" depart="147.33461063161178" departLane="random" departSpeed="10" />
<vehicle id="S2N108" type="standard_car" route="S2N" depart="147.861518003701" departLane="random" departSpeed="10" />
<vehicle id="N2S109" type="standard_car" route="N2S" depart="150.32761617512975" departLane="random" departSpeed="10" />
<vehicle id="E2W110" type="standard_car" route="E2W" depart="150.92076711006615" departLane="random" departSpeed="10" />
<vehicle id="E2W111" type="standard_car" route="E2W" depart="153.59267987932054" departLane="random" departSpeed="10" />
<vehicle id="W2E112" type="standard_car" route="W2E" depart="154.43652402027777" departLane="random" departSpeed="10" />
<vehicle id="E2W113" type="standard_car" route="E2W" depart="160.06258384776558" departLane="random" departSpeed="10" />
<vehicle id="S2N114" type="standard_car" route="S2N" depart="162.15810600225063" departLane="random" departSpeed="10" />
<vehicle id="E2W115" type="standard_car" route="E2W" depart="162.2007184337459" departLane="random" departSpeed="10" />
<vehicle id="S2N116" type="standard_car" route="S2N" depart="164.0665315232555" departLane="random" departSpeed="10" />
<vehicle id="N2S117" type="standard_car" route="N2S" depart="166.7494728367869" departLane="random" departSpeed="10" />
<vehicle id="W2E118" type="standard_car" route="W2E" depart="166.9347990108784" departLane="random" departSpeed="10" />
<vehicle id="E2W119" type="standard_car" route="E2W" depart="170.52972077842207" departLane="random" departSpeed="10" />
<vehicle id="N2S120" type="standard_car" route="N2S" depart="172.3004039985972" departLane="random" departSpeed="10" />
<vehicle id="W2E121" type="standard_car" route="W2E" depart="172.5123609316759" departLane="random" departSpeed="10" />
<vehicle id="E2W122" type="standard_car" route="E2W" depart="175.8443288429589" departLane="random" departSpeed="10" />
<vehicle id="S2N123" type="standard_car" route="S2N" depart="176.21043321092412" departLane="random" departSpeed="10" />
<vehicle id="S2N124" type="standard_car" route="S2N" depart="177.47231241595088" departLane="random" departSpeed="10" />
<vehicle id="E2W125" type="standard_car" route="E2W" depart="177.96441580130048" departLane="random" departSpeed="10" />
<vehicle id="N2S126" type="standard_car" route="N2S" depart="178.58136448350305" departLane="random" departSpeed="10" />
<vehicle id="W2E127" type="standard_car" route="W2E" depart="179.0353959379285" departLane="random" departSpeed="10" />
<vehicle id="N2S128" type="standard_car" route="N2S" depart="179.38700168125024" departLane="random" departSpeed="10" />
<vehicle id="S2N129" type="standard_car" route="S2N" depart="179.4207692028283" departLane="random" departSpeed="10" />
<vehicle id="S2N130" type="standard_car" route="S2N" depart="179.7351297891339" departLane="random" departSpeed="10" />
<vehicle id="N2S131" type="standard_car" route="N2S" depart="185.90785148792415" departLane="random" departSpeed="10" />
<vehicle id="E2W132" type="standard_car" route="E2W" depart="185.945790351768" departLane="random" departSpeed="10" />
<vehicle id="E2W133" type="standard_car" route="E2W" depart="186.83530640734114" departLane="random" departSpeed="10" />
<vehicle id="W2E134" type="standard_car" route="W2E" depart="188.26844626573657" departLane="random" departSpeed="10" />
<vehicle id="W2E135" type="standard_car" route="W2E" depart="188.8680722931971" departLane="random" departSpeed="10" />
<vehicle id="S2N136" type="standard_car" route="S2N" depart="189.07270832727792" departLane="random" departSpeed="10" />
<vehicle id="W2E137" type="standard_car" route="W2E" depart="189.09593838985566" departLane="random" departSpeed="10" />
<vehicle id="S2N138" type="standard_car" route="S2N" depart="190.00309503051562" departLane="random" departSpeed="10" />
<vehicle id="E2W139" type="standard_car" route="E2W" depart="190.6411020204955" departLane="random" departSpeed="10" />
<vehicle id="S2N140" type="standard_car" route="S2N" depart="190.7575330394526" departLane="random" departSpeed="10" />
<vehicle id="S2N141" type="standard_car" route="S2N" depart="190.90943666628993" departLane="random" departSpeed="10" />
<vehicle id="E2W142" type="standard_car" route="E2W" depart="190.9135725888836" departLane="random" departSpeed="10" />
<vehicle id="E2W143" type="standard_car" route="E2W" depart="191.4270408374938" departLane="random" departSpeed="10" />
<vehicle id="N2S144" type="standard_car" route="N2S" depart="192.05927623809248" departLane="random" departSpeed="10" />
<vehicle id="E2W145" type="standard_car" route="E2W" depart="194.82753759591867" departLane="random" departSpeed="10" />
<vehicle id="N2S146" type="standard_car" route="N2S" depart="196.08087903993146" departLane="random" departSpeed="10" />
<vehicle id="W2E147" type="standard_car" route="W2E" depart="196.16490318426023" departLane="random" departSpeed="10" />
<vehicle id="N2S148" type="standard_car" route="N2S" depart="199.97096882313693" departLane="random" departSpeed="10" />
<vehicle id="W2E149" type="standard_car" route="W2E" depart="201.2633834922622" departLane="random" departSpeed="10" />
<vehicle id="N2S150" type="standard_car" route="N2S" depart="202.57551101799734" departLane="random" departSpeed="10" />
<vehicle id="N2S151" type="standard_car" route="N2S" depart="204.2477620367279" departLane="random" departSpeed="10" />
<vehicle id="E2W152" type="standard_car" route="E2W" depart="204.38458217794343" departLane="random" departSpeed="10" />
<vehicle id="N2S153" type="standard_car" route="N2S" depart="207.52262640010923" departLane="random" departSpeed="10" />
<vehicle id="N2S154" type="standard_car" route="N2S" depart="208.9994965121071" departLane="random" departSpeed="10" />
<vehicle id="S2N155" type="standard_car" route="S2N" depart="209.3943113293875" departLane="random" departSpeed="10" />
<vehicle id="E2W156" type="standard_car" route="E2W" depart="211.11441402897168" departLane="random" departSpeed="10" />
<vehicle id="W2E157" type="standard_car" route="W2E" depart="212.76214826695374" departLane="random" departSpeed="10" />
<vehicle id="W2E158" type="standard_car" route="W2E" depart="213.407597573778" departLane="random" departSpeed="10" />
<vehicle id="W2E159" type="standard_car" route="W2E" depart="215.24637428319747" departLane="random" departSpeed="10" />
<vehicle id="E2W160" type="standard_car" route="E2W" depart="215.67024495578966" departLane="random" departSpeed="10" />
<vehicle id="S2N161" type="standard_car" route="S2N" depart="216.29256990564278" departLane="random" departSpeed="10" />
<vehicle id="N2S162" type="standard_car" route="N2S" depart="217.3675098455133" departLane="random" departSpeed="10" />
<vehicle id="S2N163" type="standard_car" route="S2N" depart="217.72621107331025" departLane="random" departSpeed="10" />
<vehicle id="E2W164" type="standard_car" route="E2W" depart="218.4549140966576" departLane="random" departSpeed="10" />
<vehicle id="S2N165" type="standard_car" route="S2N" depart="220.2981772511227" departLane="random" departSpeed="10" />
<vehicle id="W2E166" type="standard_car" route="W2E" depart="220.69510377309234" departLane="random" departSpeed="10" />
<vehicle id="E2W167" type="standard_car" route="E2W" depart="220.93118849510122" departLane="random" departSpeed="10" />
<vehicle id="S2N168" type="standard_car" route="S2N" depart="221.9717319081449" departLane="random" departSpeed="10" />
<vehicle id="N2S169" type="standard_car" route="N2S" depart="222.7235251395873" departLane="random" departSpeed="10" />
<vehicle id="W2E170" type="standard_car" route="W2E" depart="223.94339210207465" departLane="random" departSpeed="10" />
<vehicle id="N2S171" type="standard_car" route="N2S" depart="224.58812068423958" departLane="random" departSpeed="10" />
<vehicle id="E2W172" type="standard_car" route="E2W" depart="225.6699909025061" departLane="random" departSpeed="10" />
<vehicle id="E2W173" type="standard_car" route="E2W" depart="226.1765133057629" departLane="random" departSpeed="10" />
<vehicle id="W2E174" type="standard_car" route="W2E" depart="231.23772620345494" departLane="random" departSpeed="10" />
<vehicle id="N2S175" type="standard_car" route="N2S" depart="232.77671589400285" departLane="random" departSpeed="10" />
<vehicle id="N2S176" type="standard_car" route="N2S" depart="233.81815557052488" departLane="random" departSpeed="10" />
<vehicle id="E2W177" type="standard_car" route="E2W" depart="234.18090056210343" departLane="random" departSpeed="10" />
<vehicle id="S2N178" type="standard_car" route="S2N" depart="234.94817972836995" departLane="random" departSpeed="10" />
<vehicle id="S2N179" type="standard_car" route="S2N" depart="237.87034313240343" departLane="random" departSpeed="10" />
<vehicle id="S2N180" type="standard_car" route="S2N" depart="240.00287825933765" departLane="random" departSpeed="10" />
<vehicle id="E2W181" type="standard_car" route="E2W" depart="241.3579013746838" departLane="random" departSpeed="10" />
<vehicle id="E2W182" type="standard_car" route="E2W" depart="243.2838068676887" departLane="random" departSpeed="10" />
<vehicle id="W2E183" type="standard_car" route="W2E" depart="244.59224404836863" departLane="random" departSpeed="10" />
<vehicle id="E2W184" type="standard_car" route="E2W" depart="244.72827096486424" departLane="random" departSpeed="10" />
<vehicle id="E2W185" type="standard_car" route="E2W" depart="245.46504020266943" departLane="random" departSpeed="10" />
<vehicle id="N2S186" type="standard_car" route="N2S" depart="246.94325616604866" departLane="random" departSpeed="10" />
<vehicle id="W2E187" type="standard_car" route="W2E" depart="247.80091362909627" departLane="random" departSpeed="10" />
<vehicle id="W2E188" type="standard_car" route="W2E" depart="248.47758381123882" departLane="random" departSpeed="10" />
<vehicle id="W2E189" type="standard_car" route="W2E" depart="248.69718446620797" departLane="random" departSpeed="10" />
<vehicle id="W2E190" type="standard_car" route="W2E" depart="251.3039873335421" departLane="random" departSpeed="10" />
<vehicle id="S2N191" type="standard_car" route="S2N" depart="252.95818132029453" departLane="random" departSpeed="10" />
<vehicle id="S2N192" type="standard_car" route="S2N" depart="253.66206773298882" departLane="random" departSpeed="10" />
<vehicle id="N2S193" type="standard_car" route="N2S" depart="253.85915920447977" departLane="random" departSpeed="10" />
<vehicle id="E2W194" type="standard_car" route="E2W" depart="255.40455076896745" departLane="random" departSpeed="10" />
<vehicle id="E2W195" type="standard_car" route="E2W" depart="256.9109894067074" departLane="random" departSpeed="10" />
<vehicle id="E2W196" type="standard_car" route="E2W" depart="259.24800237414456" departLane="random" departSpeed="10" />
<vehicle id="W2E197" type="standard_car" route="W2E" depart="261.1183984202657" departLane="random" departSpeed="10" />
<vehicle id="W2E198" type="standard_car" route="W2E" depart="261.4278091798592" departLane="random" departSpeed="10" />
<vehicle id="E2W199" type="standard_car" route="E2W" depart="261.43082542832656" departLane="random" departSpeed="10" />
<vehicle id="W2E200" type="standard_car" route="W2E" depart="261.7400466380166" departLane="random" departSpeed="10" />
<vehicle id="N2S201" type="standard_car" route="N2S" depart="263.9700786134269" departLane="random" departSpeed="10" />
<vehicle id="S2N202" type="standard_car" route="S2N" depart="264.1187270865618" departLane="random" departSpeed="10" />
<vehicle id="E2W203" type="standard_car" route="E2W" depart="266.13103786943327" departLane="random" departSpeed="10" />
<vehicle id="W2E204" type="standard_car" route="W2E" depart="269.76978311411847" departLane="random" departSpeed="10" />
<vehicle id="N2S205" type="standard_car" route="N2S" depart="274.4330422121215" departLane="random" departSpeed="10" />
<vehicle id="S2N206" type="standard_car" route="S2N" depart="274.9546776789862" departLane="random" departSpeed="10" />
<vehicle id="E2W207" type="standard_car" route="E2W" depart="276.8748959873435" departLane="random" departSpeed="10" />
<vehicle id="N2S208" type="standard_car" route="N2S" depart="279.17062930136103" departLane="random" departSpeed="10" />
<vehicle id="S2N209" type="standard_car" route="S2N" depart="282.04774402715975" departLane="random" departSpeed="10" />
<vehicle id="S2N210" type="standard_car" route="S2N" depart="284.218850268133" departLane="random" departSpeed="10" />
<vehicle id="W2E211" type="standard_car" route="W2E" depart="286.4184144076709" departLane="random" departSpeed="10" />
<vehicle id="E2W212" type="standard_car" route="E2W" depart="288.95037569989006" departLane="random" departSpeed="10" />
<vehicle id="S2N213" type="standard_car" route="S2N" depart="299.35263567548844" departLane="random" departSpeed="10" />
<vehicle id="N2S214" type="standard_car" route="N2S" depart="308.1040254849382" departLane="random" departSpeed="10" />
<vehicle id="S2N215" type="standard_car" route="S2N" depart="315.6069345799267" departLane="random" departSpeed="10" />
<vehicle id="W2E216" type="standard_car" route="W2E" depart="316.71567873709233" departLane="random" departSpeed="10" />
<vehicle id="W2E217" type="standard_car" route="W2E" depart="320.95270831453826" departLane="random" departSpeed="10" />
<vehicle id="W2E218" type="standard_car" route="W2E" depart="321.4548375211301" departLane="random" departSpeed="10" />
<vehicle id="W2E219" type="standard_car" route="W2E" depart="323.7112751953792" departLane="random" departSpeed="10" />
<vehicle id="N2S220" type="standard_car" route="N2S" depart="324.0170226998118" departLane="random" departSpeed="10" />
<vehicle id="S2N221" type="standard_car" route="S2N" depart="327.12239729107824" departLane="random" departSpeed="10" />
<vehicle id="N2S222" type="standard_car" route="N2S" depart="329.6172906337777" departLane="random" departSpeed="10" />
<vehicle id="W2E223" type="standard_car" route="W2E" depart="336.5498111374032" departLane="random" departSpeed="10" />
<vehicle id="S2N224" type="standard_car" route="S2N" depart="346.21898035380144" departLane="random" departSpeed="10" />
<vehicle id="W2E225" type="standard_car" route="W2E" depart="349.6977327131843" departLane="random" departSpeed="10" />
<vehicle id="E2W226" type="standard_car" route="E2W" depart="360.0950447279258" departLane="random" departSpeed="10" />
<vehicle id="W2E227" type="standard_car" route="W2E" depart="362.8185469816828" departLane="random" departSpeed="10" />
<vehicle id="E2W228" type="standard_car" route="E2W" depart="366.0575788295278" departLane="random" departSpeed="10" />
<vehicle id="W2E229" type="standard_car" route="W2E" depart="380.1364680309858" departLane="random" departSpeed="10" />
<vehicle id="S2N230" type="standard_car" route="S2N" depart="386.02309056345115" departLane="random" departSpeed="10" />
<vehicle id="W2E231" type="standard_car" route="W2E" depart="393.33758231072255" departLane="random" departSpeed="10" />
<vehicle id="N2S232" type="standard_car" route="N2S" depart="409.0556404733602" departLane="random" departSpeed="10" />
<vehicle id="W2E233" type="standard_car" route="W2E" depart="420.07850270298286" departLane="random" departSpeed="10" />
<vehicle id="S2N234" type="standard_car" route="S2N" depart="491.8472224598167" departLane="random" departSpeed="10" />
<vehicle id="N2S235" type="standard_car" route="N2S" depart="500.0" departLane="random" departSpeed="10" />
</routes>
