<?xml version="1.0" encoding="UTF-8"?>

            <routes xmlns:xsi="http://www.w3.org/2001/XMLSchema-instance">
   
            <vType accel="1.0" decel="4.5" id="standard_car" length="5.0" minGap="2.5" maxSpeed="25" sigma="0.5" />) 
            
            <route id="N2W" edges="-125514711 125514713"/>
            <route id="N2S" edges="-125514711 -125514709"/>
            <route id="N2E" edges="-125514711 -548975769"/>     
            <route id="W2N" edges="-125514713 125514711"/>
            <route id="W2E" edges="-125514713 -548975769"/>
            <route id="W2S" edges="-125514711 -125514709"/>
            <route id="S2W" edges="125514709 125514713"/>
            <route id="S2N" edges="125514709 125514711"/>
            <route id="S2E" edges="-125514711 -548975769"/>
            <route id="E2S" edges="548975769 -125514709"/>
            <route id="E2W" edges="548975769 125514713"/>
            <route id="E2N" edges="548975769 125514711"/>
            
<vehicle id="S2N0" type="standard_car" route="S2N" depart="14.723437214867916" departLane="random" departSpeed="10" />
<vehicle id="N2S1" type="standard_car" route="N2S" depart="25.654455547792896" departLane="random" departSpeed="10" />
<vehicle id="N2S2" type="standard_car" route="N2S" depart="53.72684329695327" departLane="random" departSpeed="10" />
<vehicle id="E2W3" type="standard_car" route="E2W" depart="56.05458389645935" departLane="random" departSpeed="10" />
<vehicle id="E2N4" type="standard_car" route="E2N" depart="59.390293786664" departLane="random" departSpeed="10" />
<vehicle id="N2S5" type="standard_car" route="N2S" depart="60.20982274502521" departLane="random" departSpeed="10" />
<vehicle id="W2E6" type="standard_car" route="W2E" depart="70.0928209910693" departLane="random" departSpeed="10" />
<vehicle id="S2N7" type="standard_car" route="S2N" depart="72.06147155498753" departLane="random" departSpeed="10" />
<vehicle id="E2W8" type="standard_car" route="E2W" depart="72.81551323653527" departLane="random" departSpeed="10" />
<vehicle id="S2N9" type="standard_car" route="S2N" depart="76.25759562659395" departLane="random" departSpeed="10" />
<vehicle id="N2S10" type="standard_car" route="N2S" depart="83.27199945524666" departLane="random" departSpeed="10" />
<vehicle id="W2E11" type="standard_car" route="W2E" depart="94.46093603281176" departLane="random" departSpeed="10" />
<vehicle id="E2W12" type="standard_car" route="E2W" depart="99.43729867156718" departLane="random" departSpeed="10" />
<vehicle id="W2E13" type="standard_car" route="W2E" depart="100.35827928099101" departLane="random" departSpeed="10" />
<vehicle id="N2W14" type="standard_car" route="N2W" depart="100.90235398527592" departLane="random" departSpeed="10" />
<vehicle id="W2E15" type="standard_car" route="W2E" depart="104.81973360508712" departLane="random" departSpeed="10" />
<vehicle id="W2E16" type="standard_car" route="W2E" depart="105.90061555780106" departLane="random" departSpeed="10" />
<vehicle id="W2E17" type="standard_car" route="W2E" depart="110.14043105410725" departLane="random" departSpeed="10" />
<vehicle id="E2S18" type="standard_car" route="E2S" depart="111.20703377398719" departLane="random" departSpeed="10" />
<vehicle id="E2W19" type="standard_car" route="E2W" depart="114.53619477011581" departLane="random" departSpeed="10" />
<vehicle id="W2E20" type="standard_car" route="W2E" depart="114.67423021582788" departLane="random" departSpeed="10" />
<vehicle id="N2S21" type="standard_car" route="N2S" depart="116.98859652812916" departLane="random" departSpeed="10" />
<vehicle id="S2W22" type="standard_car" route="S2W" depart="119.5103578300361" departLane="random" departSpeed="10" />
<vehicle id="S2N23" type="standard_car" route="S2N" depart="122.55268898532721" departLane="random" departSpeed="10" />
<vehicle id="N2S24" type="standard_car" route="N2S" depart="128.7914488430848" departLane="random" departSpeed="10" />
<vehicle id="E2W25" type="standard_car" route="E2W" depart="132.60074529775974" departLane="random" departSpeed="10" />
<vehicle id="E2W26" type="standard_car" route="E2W" depart="134.15206497786832" departLane="random" departSpeed="10" />
<vehicle id="N2S27" type="standard_car" route="N2S" depart="137.72153473490792" departLane="random" departSpeed="10" />
<vehicle id="N2S28" type="standard_car" route="N2S" depart="140.23576860275088" departLane="random" departSpeed="10" />
<vehicle id="N2S29" type="standard_car" route="N2S" depart="141.75909507678548" departLane="random" departSpeed="10" />
<vehicle id="W2E30" type="standard_car" route="W2E" depart="148.6451581895505" departLane="random" departSpeed="10" />
<vehicle id="W2E31" type="standard_car" route="W2E" depart="152.66908211007072" departLane="random" departSpeed="10" />
<vehicle id="E2S32" type="standard_car" route="E2S" depart="157.56783415439136" departLane="random" departSpeed="10" />
<vehicle id="S2N33" type="standard_car" route="S2N" depart="159.71234451944298" departLane="random" departSpeed="10" />
<vehicle id="S2E34" type="standard_car" route="S2E" depart="160.20930154605037" departLane="random" departSpeed="10" />
<vehicle id="S2E35" type="standard_car" route="S2E" depart="161.10034268582234" departLane="random" departSpeed="10" />
<vehicle id="W2E36" type="standard_car" route="W2E" depart="161.3164582097737" departLane="random" departSpeed="10" />
<vehicle id="E2W37" type="standard_car" route="E2W" depart="170.87135024017957" departLane="random" departSpeed="10" />
<vehicle id="N2S38" type="standard_car" route="N2S" depart="174.56198715499553" departLane="random" departSpeed="10" />
<vehicle id="W2E39" type="standard_car" route="W2E" depart="179.49869032592878" departLane="random" departSpeed="10" />
<vehicle id="E2N40" type="standard_car" route="E2N" depart="180.07921080678378" departLane="random" departSpeed="10" />
<vehicle id="W2E41" type="standard_car" route="W2E" depart="180.79128509091072" departLane="random" departSpeed="10" />
<vehicle id="W2S42" type="standard_car" route="W2S" depart="182.60497683329737" departLane="random" departSpeed="10" />
<vehicle id="W2E43" type="standard_car" route="W2E" depart="184.07557169778366" departLane="random" departSpeed="10" />
<vehicle id="S2N44" type="standard_car" route="S2N" depart="186.78687760369348" departLane="random" departSpeed="10" />
<vehicle id="E2W45" type="standard_car" route="E2W" depart="187.53494626573" departLane="random" departSpeed="10" />
<vehicle id="E2W46" type="standard_car" route="E2W" depart="188.5503277507408" departLane="random" departSpeed="10" />
<vehicle id="E2W47" type="standard_car" route="E2W" depart="191.81682359870783" departLane="random" departSpeed="10" />
<vehicle id="N2S48" type="standard_car" route="N2S" depart="193.09274124862893" departLane="random" departSpeed="10" />
<vehicle id="W2E49" type="standard_car" route="W2E" depart="195.67240554856295" departLane="random" departSpeed="10" />
<vehicle id="W2E50" type="standard_car" route="W2E" depart="197.54042719876023" departLane="random" departSpeed="10" />
<vehicle id="E2S51" type="standard_car" route="E2S" depart="197.91955317630286" departLane="random" departSpeed="10" />
<vehicle id="E2W52" type="standard_car" route="E2W" depart="198.68785032001506" departLane="random" departSpeed="10" />
<vehicle id="N2S53" type="standard_car" route="N2S" depart="202.48633562813944" departLane="random" departSpeed="10" />
<vehicle id="E2W54" type="standard_car" route="E2W" depart="207.34800307498057" departLane="random" departSpeed="10" />
<vehicle id="S2W55" type="standard_car" route="S2W" depart="209.04740620364427" departLane="random" departSpeed="10" />
<vehicle id="E2W56" type="standard_car" route="E2W" depart="209.75192226821093" departLane="random" departSpeed="10" />
<vehicle id="N2S57" type="standard_car" route="N2S" depart="210.1606298702046" departLane="random" departSpeed="10" />
<vehicle id="N2W58" type="standard_car" route="N2W" depart="211.85433684388335" departLane="random" departSpeed="10" />
<vehicle id="E2W59" type="standard_car" route="E2W" depart="213.86216173497044" departLane="random" departSpeed="10" />
<vehicle id="N2S60" type="standard_car" route="N2S" depart="214.56817474165854" departLane="random" departSpeed="10" />
<vehicle id="N2E61" type="standard_car" route="N2E" depart="216.92731660733406" departLane="random" departSpeed="10" />
<vehicle id="N2E62" type="standard_car" route="N2E" depart="223.99218526879602" departLane="random" departSpeed="10" />
<vehicle id="S2N63" type="standard_car" route="S2N" depart="232.80576445563105" departLane="random" departSpeed="10" />
<vehicle id="N2S64" type="standard_car" route="N2S" depart="233.38262494932044" departLane="random" departSpeed="10" />
<vehicle id="S2W65" type="standard_car" route="S2W" depart="243.5399637170684" departLane="random" departSpeed="10" />
<vehicle id="W2S66" type="standard_car" route="W2S" depart="246.219238931577" departLane="random" departSpeed="10" />
<vehicle id="E2W67" type="standard_car" route="E2W" depart="249.4338005705068" departLane="random" departSpeed="10" />
<vehicle id="W2E68" type="standard_car" route="W2E" depart="250.409628956889" departLane="random" departSpeed="10" />
<vehicle id="W2E69" type="standard_car" route="W2E" depart="251.9648892050102" departLane="random" departSpeed="10" />
<vehicle id="E2S70" type="standard_car" route="E2S" depart="256.30162060531654" departLane="random" departSpeed="10" />
<vehicle id="E2W71" type="standard_car" route="E2W" depart="261.1261089724734" departLane="random" departSpeed="10" />
<vehicle id="W2S72" type="standard_car" route="W2S" depart="261.2909964943365" departLane="random" departSpeed="10" />
<vehicle id="W2E73" type="standard_car" route="W2E" depart="261.6507419919832" departLane="random" departSpeed="10" />
<vehicle id="S2W74" type="standard_car" route="S2W" depart="263.6673350296573" departLane="random" departSpeed="10" />
<vehicle id="S2E75" type="standard_car" route="S2E" depart="266.4751097503003" departLane="random" departSpeed="10" />
<vehicle id="W2E76" type="standard_car" route="W2E" depart="270.4549236739945" departLane="random" departSpeed="10" />
<vehicle id="E2S77" type="standard_car" route="E2S" depart="275.0199689237529" departLane="random" departSpeed="10" />
<vehicle id="N2S78" type="standard_car" route="N2S" depart="276.2682284132418" departLane="random" departSpeed="10" />
<vehicle id="S2N79" type="standard_car" route="S2N" depart="279.8563319139853" departLane="random" departSpeed="10" />
<vehicle id="S2N80" type="standard_car" route="S2N" depart="282.6279616940672" departLane="random" departSpeed="10" />
<vehicle id="S2N81" type="standard_car" route="S2N" depart="284.53921219660066" departLane="random" departSpeed="10" />
<vehicle id="E2W82" type="standard_car" route="E2W" depart="286.6092785038103" departLane="random" departSpeed="10" />
<vehicle id="W2N83" type="standard_car" route="W2N" depart="301.27745650542903" departLane="random" departSpeed="10" />
<vehicle id="E2S84" type="standard_car" route="E2S" depart="302.7126198808885" departLane="random" departSpeed="10" />
<vehicle id="W2E85" type="standard_car" route="W2E" depart="303.87967869398693" departLane="random" departSpeed="10" />
<vehicle id="E2N86" type="standard_car" route="E2N" depart="305.93558055107377" departLane="random" departSpeed="10" />
<vehicle id="E2W87" type="standard_car" route="E2W" depart="313.0667132604589" departLane="random" departSpeed="10" />
<vehicle id="S2N88" type="standard_car" route="S2N" depart="318.0773739325385" departLane="random" departSpeed="10" />
<vehicle id="S2N89" type="standard_car" route="S2N" depart="322.2287166716098" departLane="random" departSpeed="10" />
<vehicle id="N2S90" type="standard_car" route="N2S" depart="331.69534381108974" departLane="random" departSpeed="10" />
<vehicle id="W2N91" type="standard_car" route="W2N" depart="343.6201692447974" departLane="random" departSpeed="10" />
<vehicle id="N2S92" type="standard_car" route="N2S" depart="373.6405896152132" departLane="random" departSpeed="10" />
<vehicle id="S2N93" type="standard_car" route="S2N" depart="375.61815902591684" departLane="random" departSpeed="10" />
<vehicle id="W2S94" type="standard_car" route="W2S" depart="382.58747472047537" departLane="random" departSpeed="10" />
<vehicle id="W2E95" type="standard_car" route="W2E" depart="389.27203135042487" departLane="random" departSpeed="10" />
<vehicle id="E2W96" type="standard_car" route="E2W" depart="410.9702896953255" departLane="random" departSpeed="10" />
<vehicle id="N2S97" type="standard_car" route="N2S" depart="414.86904662215665" departLane="random" departSpeed="10" />
<vehicle id="W2E98" type="standard_car" route="W2E" depart="477.0227011736289" departLane="random" departSpeed="10" />
<vehicle id="E2W99" type="standard_car" route="E2W" depart="500.0" departLane="random" departSpeed="10" />
</routes>
