<?xml version="1.0" encoding="UTF-8"?>

            <routes xmlns:xsi="http://www.w3.org/2001/XMLSchema-instance">
   
            <vType accel="1.0" decel="4.5" id="standard_car" length="5.0" minGap="2.5" maxSpeed="25" sigma="0.5" />) 
            
            <route id="N2W" edges="-125514711 125514713"/>
            <route id="N2S" edges="-125514711 -125514709"/>
            <route id="N2E" edges="-125514711 -548975769"/>     
            <route id="W2N" edges="-125514713 125514711"/>
            <route id="W2E" edges="-125514713 -548975769"/>
            <route id="W2S" edges="-125514711 -125514709"/>
            <route id="S2W" edges="125514709 125514713"/>
            <route id="S2N" edges="125514709 125514711"/>
            <route id="S2E" edges="-125514711 -548975769"/>
            <route id="E2S" edges="548975769 -125514709"/>
            <route id="E2W" edges="548975769 125514713"/>
            <route id="E2N" edges="548975769 125514711"/>
            
<vehicle id="N2W0" type="standard_car" route="N2W" depart="3.9124858642447213" departLane="random" departSpeed="10" />
<vehicle id="S2E1" type="standard_car" route="S2E" depart="14.092655229098474" departLane="random" departSpeed="10" />
<vehicle id="N2S2" type="standard_car" route="N2S" depart="49.09441162994762" departLane="random" departSpeed="10" />
<vehicle id="N2E3" type="standard_car" route="N2E" depart="50.68235478337788" departLane="random" departSpeed="10" />
<vehicle id="N2S4" type="standard_car" route="N2S" depart="59.30835509050313" departLane="random" departSpeed="10" />
<vehicle id="N2E5" type="standard_car" route="N2E" depart="59.91227622630088" departLane="random" departSpeed="10" />
<vehicle id="N2S6" type="standard_car" route="N2S" depart="75.8850931365394" departLane="random" departSpeed="10" />
<vehicle id="E2W7" type="standard_car" route="E2W" depart="92.05233430153592" departLane="random" departSpeed="10" />
<vehicle id="N2W8" type="standard_car" route="N2W" depart="97.94787348465123" departLane="random" departSpeed="10" />
<vehicle id="N2S9" type="standard_car" route="N2S" depart="98.57228266067821" departLane="random" departSpeed="10" />
<vehicle id="N2E10" type="standard_car" route="N2E" depart="99.95835894194134" departLane="random" departSpeed="10" />
<vehicle id="N2S11" type="standard_car" route="N2S" depart="101.24582033951384" departLane="random" departSpeed="10" />
<vehicle id="N2S12" type="standard_car" route="N2S" depart="105.4395345849341" departLane="random" departSpeed="10" />
<vehicle id="E2W13" type="standard_car" route="E2W" depart="114.94397046573995" departLane="random" departSpeed="10" />
<vehicle id="E2W14" type="standard_car" route="E2W" depart="115.31912669763673" departLane="random" departSpeed="10" />
<vehicle id="N2S15" type="standard_car" route="N2S" depart="118.59219364212711" departLane="random" departSpeed="10" />
<vehicle id="S2N16" type="standard_car" route="S2N" depart="118.71254084766582" departLane="random" departSpeed="10" />
<vehicle id="E2W17" type="standard_car" route="E2W" depart="121.05656872055785" departLane="random" departSpeed="10" />
<vehicle id="E2S18" type="standard_car" route="E2S" depart="125.59111647009277" departLane="random" departSpeed="10" />
<vehicle id="N2E19" type="standard_car" route="N2E" depart="131.9025474266438" departLane="random" departSpeed="10" />
<vehicle id="N2S20" type="standard_car" route="N2S" depart="132.07111639844328" departLane="random" departSpeed="10" />
<vehicle id="S2N21" type="standard_car" route="S2N" depart="136.84936354530973" departLane="random" departSpeed="10" />
<vehicle id="S2N22" type="standard_car" route="S2N" depart="137.81848924636827" departLane="random" departSpeed="10" />
<vehicle id="E2W23" type="standard_car" route="E2W" depart="137.89569965005975" departLane="random" departSpeed="10" />
<vehicle id="E2W24" type="standard_car" route="E2W" depart="139.85656679890567" departLane="random" departSpeed="10" />
<vehicle id="N2S25" type="standard_car" route="N2S" depart="142.53633474277777" departLane="random" departSpeed="10" />
<vehicle id="S2N26" type="standard_car" route="S2N" depart="144.39904508541304" departLane="random" departSpeed="10" />
<vehicle id="E2S27" type="standard_car" route="E2S" depart="145.37907869280204" departLane="random" departSpeed="10" />
<vehicle id="W2E28" type="standard_car" route="W2E" depart="150.30459040379807" departLane="random" departSpeed="10" />
<vehicle id="N2S29" type="standard_car" route="N2S" depart="150.4325954104808" departLane="random" departSpeed="10" />
<vehicle id="N2S30" type="standard_car" route="N2S" depart="153.14485753688157" departLane="random" departSpeed="10" />
<vehicle id="S2N31" type="standard_car" route="S2N" depart="154.4418303470739" departLane="random" departSpeed="10" />
<vehicle id="S2N32" type="standard_car" route="S2N" depart="154.680434452371" departLane="random" departSpeed="10" />
<vehicle id="N2S33" type="standard_car" route="N2S" depart="155.18616642783616" departLane="random" departSpeed="10" />
<vehicle id="S2N34" type="standard_car" route="S2N" depart="158.44903494926226" departLane="random" departSpeed="10" />
<vehicle id="N2E35" type="standard_car" route="N2E" depart="158.74692896495822" departLane="random" departSpeed="10" />
<vehicle id="S2N36" type="standard_car" route="S2N" depart="160.35909956662474" departLane="random" departSpeed="10" />
<vehicle id="N2W37" type="standard_car" route="N2W" depart="161.14719342930795" departLane="random" departSpeed="10" />
<vehicle id="N2S38" type="standard_car" route="N2S" depart="161.93519392988017" departLane="random" departSpeed="10" />
<vehicle id="E2W39" type="standard_car" route="E2W" depart="162.10319155573293" departLane="random" departSpeed="10" />
<vehicle id="E2N40" type="standard_car" route="E2N" depart="171.34366412097884" departLane="random" departSpeed="10" />
<vehicle id="S2N41" type="standard_car" route="S2N" depart="174.5619852842917" departLane="random" departSpeed="10" />
<vehicle id="S2N42" type="standard_car" route="S2N" depart="176.85721538369836" departLane="random" departSpeed="10" />
<vehicle id="E2W43" type="standard_car" route="E2W" depart="178.30622790868767" departLane="random" departSpeed="10" />
<vehicle id="N2S44" type="standard_car" route="N2S" depart="183.1490012840231" departLane="random" departSpeed="10" />
<vehicle id="W2S45" type="standard_car" route="W2S" depart="184.54972288242635" departLane="random" departSpeed="10" />
<vehicle id="S2E46" type="standard_car" route="S2E" depart="186.68138822844264" departLane="random" departSpeed="10" />
<vehicle id="N2S47" type="standard_car" route="N2S" depart="187.48098485020722" departLane="random" departSpeed="10" />
<vehicle id="W2E48" type="standard_car" route="W2E" depart="197.8367507300561" departLane="random" departSpeed="10" />
<vehicle id="S2N49" type="standard_car" route="S2N" depart="209.6842350691433" departLane="random" departSpeed="10" />
<vehicle id="E2W50" type="standard_car" route="E2W" depart="211.2597458493537" departLane="random" departSpeed="10" />
<vehicle id="E2W51" type="standard_car" route="E2W" depart="211.55978095420656" departLane="random" departSpeed="10" />
<vehicle id="W2N52" type="standard_car" route="W2N" depart="214.09588174222552" departLane="random" departSpeed="10" />
<vehicle id="W2N53" type="standard_car" route="W2N" depart="216.6626894444423" departLane="random" departSpeed="10" />
<vehicle id="S2N54" type="standard_car" route="S2N" depart="218.49669409714562" departLane="random" departSpeed="10" />
<vehicle id="E2W55" type="standard_car" route="E2W" depart="227.2703720659164" departLane="random" departSpeed="10" />
<vehicle id="S2N56" type="standard_car" route="S2N" depart="232.15512354720457" departLane="random" departSpeed="10" />
<vehicle id="S2N57" type="standard_car" route="S2N" depart="236.45228666456316" departLane="random" departSpeed="10" />
<vehicle id="N2S58" type="standard_car" route="N2S" depart="236.61826047980716" departLane="random" departSpeed="10" />
<vehicle id="N2S59" type="standard_car" route="N2S" depart="237.2569141514729" departLane="random" departSpeed="10" />
<vehicle id="E2S60" type="standard_car" route="E2S" depart="239.39969461846312" departLane="random" departSpeed="10" />
<vehicle id="S2N61" type="standard_car" route="S2N" depart="241.43203630705867" departLane="random" departSpeed="10" />
<vehicle id="W2E62" type="standard_car" route="W2E" depart="242.2343321000413" departLane="random" departSpeed="10" />
<vehicle id="N2E63" type="standard_car" route="N2E" depart="242.9006881702" departLane="random" departSpeed="10" />
<vehicle id="N2S64" type="standard_car" route="N2S" depart="249.7723123354513" departLane="random" departSpeed="10" />
<vehicle id="E2W65" type="standard_car" route="E2W" depart="250.42502696641384" departLane="random" departSpeed="10" />
<vehicle id="W2E66" type="standard_car" route="W2E" depart="250.8809322277996" departLane="random" departSpeed="10" />
<vehicle id="W2E67" type="standard_car" route="W2E" depart="254.43100678578068" departLane="random" departSpeed="10" />
<vehicle id="W2E68" type="standard_car" route="W2E" depart="254.80251475924575" departLane="random" departSpeed="10" />
<vehicle id="S2W69" type="standard_car" route="S2W" depart="259.86296061146896" departLane="random" departSpeed="10" />
<vehicle id="S2N70" type="standard_car" route="S2N" depart="262.20976227631786" departLane="random" departSpeed="10" />
<vehicle id="E2W71" type="standard_car" route="E2W" depart="271.37833508228533" departLane="random" departSpeed="10" />
<vehicle id="N2S72" type="standard_car" route="N2S" depart="272.17217374573005" departLane="random" departSpeed="10" />
<vehicle id="W2E73" type="standard_car" route="W2E" depart="275.95287935541506" departLane="random" departSpeed="10" />
<vehicle id="E2W74" type="standard_car" route="E2W" depart="276.2853128318682" departLane="random" departSpeed="10" />
<vehicle id="S2N75" type="standard_car" route="S2N" depart="282.9264123696697" departLane="random" departSpeed="10" />
<vehicle id="W2S76" type="standard_car" route="W2S" depart="284.2372101524992" departLane="random" departSpeed="10" />
<vehicle id="W2E77" type="standard_car" route="W2E" depart="292.41450640184036" departLane="random" departSpeed="10" />
<vehicle id="E2S78" type="standard_car" route="E2S" depart="299.63640327273583" departLane="random" departSpeed="10" />
<vehicle id="S2W79" type="standard_car" route="S2W" depart="303.9086259040187" departLane="random" departSpeed="10" />
<vehicle id="W2E80" type="standard_car" route="W2E" depart="306.19121839277136" departLane="random" departSpeed="10" />
<vehicle id="W2E81" type="standard_car" route="W2E" depart="309.9716711477094" departLane="random" departSpeed="10" />
<vehicle id="N2S82" type="standard_car" route="N2S" depart="309.9724492895076" departLane="random" departSpeed="10" />
<vehicle id="S2E83" type="standard_car" route="S2E" depart="316.2094006332592" departLane="random" departSpeed="10" />
<vehicle id="S2N84" type="standard_car" route="S2N" depart="316.74651358699515" departLane="random" departSpeed="10" />
<vehicle id="S2N85" type="standard_car" route="S2N" depart="320.7653569629573" departLane="random" departSpeed="10" />
<vehicle id="S2N86" type="standard_car" route="S2N" depart="320.79973221596487" departLane="random" departSpeed="10" />
<vehicle id="W2E87" type="standard_car" route="W2E" depart="329.29946930647776" departLane="random" departSpeed="10" />
<vehicle id="E2W88" type="standard_car" route="E2W" depart="341.6405290733938" departLane="random" departSpeed="10" />
<vehicle id="N2S89" type="standard_car" route="N2S" depart="341.7345265050509" departLane="random" departSpeed="10" />
<vehicle id="W2S90" type="standard_car" route="W2S" depart="350.39523251765945" departLane="random" departSpeed="10" />
<vehicle id="N2S91" type="standard_car" route="N2S" depart="369.4961165350256" departLane="random" departSpeed="10" />
<vehicle id="E2W92" type="standard_car" route="E2W" depart="369.83987978273274" departLane="random" departSpeed="10" />
<vehicle id="W2E93" type="standard_car" route="W2E" depart="374.0247356208135" departLane="random" departSpeed="10" />
<vehicle id="N2S94" type="standard_car" route="N2S" depart="377.04599674635887" departLane="random" departSpeed="10" />
<vehicle id="S2N95" type="standard_car" route="S2N" depart="378.5183296643096" departLane="random" departSpeed="10" />
<vehicle id="E2W96" type="standard_car" route="E2W" depart="392.60675721321553" departLane="random" departSpeed="10" />
<vehicle id="N2S97" type="standard_car" route="N2S" depart="403.0563056556476" departLane="random" departSpeed="10" />
<vehicle id="E2W98" type="standard_car" route="E2W" depart="419.8904845087169" departLane="random" departSpeed="10" />
<vehicle id="E2W99" type="standard_car" route="E2W" depart="500.0" departLane="random" departSpeed="10" />
</routes>
