<?xml version="1.0" encoding="UTF-8"?>

            <routes xmlns:xsi="http://www.w3.org/2001/XMLSchema-instance">
   
            <vType accel="1.0" decel="4.5" id="standard_car" length="5.0" minGap="2.5" maxSpeed="25" sigma="0.5" />) 
            
            <route id="N2W" edges="-125514711 125514713"/>
            <route id="N2S" edges="-125514711 -125514709"/>
            <route id="N2E" edges="-125514711 -548975769"/>     
            <route id="W2N" edges="-125514713 125514711"/>
            <route id="W2E" edges="-125514713 -548975769"/>
            <route id="W2S" edges="-125514711 -125514709"/>
            <route id="S2W" edges="125514709 125514713"/>
            <route id="S2N" edges="125514709 125514711"/>
            <route id="S2E" edges="-125514711 -548975769"/>
            <route id="E2S" edges="548975769 -125514709"/>
            <route id="E2W" edges="548975769 125514713"/>
            <route id="E2N" edges="548975769 125514711"/>
            
<vehicle id="N2S0" type="standard_car" route="N2S" depart="5.590735363881808" departLane="random" departSpeed="10" />
<vehicle id="N2S1" type="standard_car" route="N2S" depart="6.372607121995746" departLane="random" departSpeed="10" />
<vehicle id="E2W2" type="standard_car" route="E2W" depart="17.970032367855488" departLane="random" departSpeed="10" />
<vehicle id="W2E3" type="standard_car" route="W2E" depart="21.868793188555973" departLane="random" departSpeed="10" />
<vehicle id="E2W4" type="standard_car" route="E2W" depart="30.97311920316751" departLane="random" departSpeed="10" />
<vehicle id="E2W5" type="standard_car" route="E2W" depart="31.806848249144615" departLane="random" departSpeed="10" />
<vehicle id="W2E6" type="standard_car" route="W2E" depart="31.923889800455473" departLane="random" departSpeed="10" />
<vehicle id="S2N7" type="standard_car" route="S2N" depart="35.49142846793134" departLane="random" departSpeed="10" />
<vehicle id="E2W8" type="standard_car" route="E2W" depart="38.446234690011515" departLane="random" departSpeed="10" />
<vehicle id="S2N9" type="standard_car" route="S2N" depart="40.248265896338616" departLane="random" departSpeed="10" />
<vehicle id="S2N10" type="standard_car" route="S2N" depart="42.71226395697405" departLane="random" departSpeed="10" />
<vehicle id="W2E11" type="standard_car" route="W2E" depart="47.59823226893794" departLane="random" departSpeed="10" />
<vehicle id="W2E12" type="standard_car" route="W2E" depart="51.251077419577264" departLane="random" departSpeed="10" />
<vehicle id="W2E13" type="standard_car" route="W2E" depart="56.735347246025455" departLane="random" departSpeed="10" />
<vehicle id="W2E14" type="standard_car" route="W2E" depart="58.2327918152276" departLane="random" departSpeed="10" />
<vehicle id="W2E15" type="standard_car" route="W2E" depart="58.576802575674556" departLane="random" departSpeed="10" />
<vehicle id="E2W16" type="standard_car" route="E2W" depart="59.53775811473746" departLane="random" departSpeed="10" />
<vehicle id="E2W17" type="standard_car" route="E2W" depart="61.33500124330382" departLane="random" departSpeed="10" />
<vehicle id="W2E18" type="standard_car" route="W2E" depart="63.52182339991322" departLane="random" departSpeed="10" />
<vehicle id="W2E19" type="standard_car" route="W2E" depart="65.50505056614114" departLane="random" departSpeed="10" />
<vehicle id="S2N20" type="standard_car" route="S2N" depart="68.0293973365046" departLane="random" departSpeed="10" />
<vehicle id="N2S21" type="standard_car" route="N2S" depart="72.13609129811032" departLane="random" departSpeed="10" />
<vehicle id="N2S22" type="standard_car" route="N2S" depart="75.24345292497587" departLane="random" departSpeed="10" />
<vehicle id="E2W23" type="standard_car" route="E2W" depart="79.27511009279206" departLane="random" departSpeed="10" />
<vehicle id="S2N24" type="standard_car" route="S2N" depart="79.71898097403192" departLane="random" departSpeed="10" />
<vehicle id="E2W25" type="standard_car" route="E2W" depart="81.11849210210616" departLane="random" departSpeed="10" />
<vehicle id="E2W26" type="standard_car" route="E2W" depart="87.34923797622974" departLane="random" departSpeed="10" />
<vehicle id="W2E27" type="standard_car" route="W2E" depart="87.9142824454624" departLane="random" departSpeed="10" />
<vehicle id="S2N28" type="standard_car" route="S2N" depart="88.44761455625152" departLane="random" departSpeed="10" />
<vehicle id="E2W29" type="standard_car" route="E2W" depart="89.94033062316615" departLane="random" departSpeed="10" />
<vehicle id="S2N30" type="standard_car" route="S2N" depart="91.23308583724906" departLane="random" departSpeed="10" />
<vehicle id="E2W31" type="standard_car" route="E2W" depart="92.08774820436662" departLane="random" departSpeed="10" />
<vehicle id="W2E32" type="standard_car" route="W2E" depart="92.99104727918092" departLane="random" departSpeed="10" />
<vehicle id="E2W33" type="standard_car" route="E2W" depart="93.40600758828937" departLane="random" departSpeed="10" />
<vehicle id="N2S34" type="standard_car" route="N2S" depart="97.2098256135498" departLane="random" departSpeed="10" />
<vehicle id="N2S35" type="standard_car" route="N2S" depart="98.86600797829277" departLane="random" departSpeed="10" />
<vehicle id="S2N36" type="standard_car" route="S2N" depart="101.15013337516584" departLane="random" departSpeed="10" />
<vehicle id="E2W37" type="standard_car" route="E2W" depart="109.93231677796962" departLane="random" departSpeed="10" />
<vehicle id="N2S38" type="standard_car" route="N2S" depart="111.31214761053556" departLane="random" departSpeed="10" />
<vehicle id="S2N39" type="standard_car" route="S2N" depart="113.00950612162136" departLane="random" departSpeed="10" />
<vehicle id="N2S40" type="standard_car" route="N2S" depart="115.76382649693696" departLane="random" departSpeed="10" />
<vehicle id="W2E41" type="standard_car" route="W2E" depart="117.29707093997428" departLane="random" departSpeed="10" />
<vehicle id="E2W42" type="standard_car" route="E2W" depart="117.49354520277393" departLane="random" departSpeed="10" />
<vehicle id="S2N43" type="standard_car" route="S2N" depart="118.10351448282492" departLane="random" departSpeed="10" />
<vehicle id="E2W44" type="standard_car" route="E2W" depart="120.41607728183088" departLane="random" departSpeed="10" />
<vehicle id="N2S45" type="standard_car" route="N2S" depart="128.07044139636568" departLane="random" departSpeed="10" />
<vehicle id="E2W46" type="standard_car" route="E2W" depart="128.60166310908428" departLane="random" departSpeed="10" />
<vehicle id="S2N47" type="standard_car" route="S2N" depart="129.81618409521352" departLane="random" departSpeed="10" />
<vehicle id="W2E48" type="standard_car" route="W2E" depart="132.72200374275263" departLane="random" departSpeed="10" />
<vehicle id="S2N49" type="standard_car" route="S2N" depart="132.8579547439823" departLane="random" departSpeed="10" />
<vehicle id="S2N50" type="standard_car" route="S2N" depart="135.18697505473017" departLane="random" departSpeed="10" />
<vehicle id="S2N51" type="standard_car" route="S2N" depart="136.79703630001973" departLane="random" departSpeed="10" />
<vehicle id="E2W52" type="standard_car" route="E2W" depart="136.88141524014966" departLane="random" departSpeed="10" />
<vehicle id="S2N53" type="standard_car" route="S2N" depart="137.35292007645552" departLane="random" departSpeed="10" />
<vehicle id="E2W54" type="standard_car" route="E2W" depart="139.40235109967804" departLane="random" departSpeed="10" />
<vehicle id="E2W55" type="standard_car" route="E2W" depart="141.663773880595" departLane="random" departSpeed="10" />
<vehicle id="E2W56" type="standard_car" route="E2W" depart="143.91710552986436" departLane="random" departSpeed="10" />
<vehicle id="E2W57" type="standard_car" route="E2W" depart="145.29250247638268" departLane="random" departSpeed="10" />
<vehicle id="E2W58" type="standard_car" route="E2W" depart="145.41627900658196" departLane="random" departSpeed="10" />
<vehicle id="N2S59" type="standard_car" route="N2S" depart="147.63708762502154" departLane="random" departSpeed="10" />
<vehicle id="W2E60" type="standard_car" route="W2E" depart="151.39531823344856" departLane="random" departSpeed="10" />
<vehicle id="S2N61" type="standard_car" route="S2N" depart="155.9218034680072" departLane="random" departSpeed="10" />
<vehicle id="S2N62" type="standard_car" route="S2N" depart="156.27109774967425" departLane="random" departSpeed="10" />
<vehicle id="S2N63" type="standard_car" route="S2N" depart="161.11206304170196" departLane="random" departSpeed="10" />
<vehicle id="N2S64" type="standard_car" route="N2S" depart="161.1843521113246" departLane="random" departSpeed="10" />
<vehicle id="E2W65" type="standard_car" route="E2W" depart="163.07627293460715" departLane="random" departSpeed="10" />
<vehicle id="N2S66" type="standard_car" route="N2S" depart="163.64381851588573" departLane="random" departSpeed="10" />
<vehicle id="N2S67" type="standard_car" route="N2S" depart="169.62564433266834" departLane="random" departSpeed="10" />
<vehicle id="E2W68" type="standard_car" route="E2W" depart="169.96236359598123" departLane="random" departSpeed="10" />
<vehicle id="S2N69" type="standard_car" route="S2N" depart="171.806467773107" departLane="random" departSpeed="10" />
<vehicle id="N2S70" type="standard_car" route="N2S" depart="173.6713105877258" departLane="random" departSpeed="10" />
<vehicle id="E2W71" type="standard_car" route="E2W" depart="174.29624611061723" departLane="random" departSpeed="10" />
<vehicle id="E2W72" type="standard_car" route="E2W" depart="175.71097256785285" departLane="random" departSpeed="10" />
<vehicle id="E2W73" type="standard_car" route="E2W" depart="177.22009394536656" departLane="random" departSpeed="10" />
<vehicle id="S2N74" type="standard_car" route="S2N" depart="179.96008358553325" departLane="random" departSpeed="10" />
<vehicle id="E2W75" type="standard_car" route="E2W" depart="181.70361847887244" departLane="random" departSpeed="10" />
<vehicle id="S2N76" type="standard_car" route="S2N" depart="184.23234025192664" departLane="random" departSpeed="10" />
<vehicle id="S2N77" type="standard_car" route="S2N" depart="185.80848393303145" departLane="random" departSpeed="10" />
<vehicle id="S2N78" type="standard_car" route="S2N" depart="188.13021465528487" departLane="random" departSpeed="10" />
<vehicle id="S2N79" type="standard_car" route="S2N" depart="194.9338825849162" departLane="random" departSpeed="10" />
<vehicle id="N2S80" type="standard_car" route="N2S" depart="196.50712500289166" departLane="random" departSpeed="10" />
<vehicle id="N2S81" type="standard_car" route="N2S" depart="199.83433190378162" departLane="random" departSpeed="10" />
<vehicle id="S2N82" type="standard_car" route="S2N" depart="202.18802702250264" departLane="random" departSpeed="10" />
<vehicle id="W2E83" type="standard_car" route="W2E" depart="202.60104232170573" departLane="random" departSpeed="10" />
<vehicle id="W2E84" type="standard_car" route="W2E" depart="206.36989236348694" departLane="random" departSpeed="10" />
<vehicle id="S2N85" type="standard_car" route="S2N" depart="223.61727278241418" departLane="random" departSpeed="10" />
<vehicle id="E2W86" type="standard_car" route="E2W" depart="224.5922801953911" departLane="random" departSpeed="10" />
<vehicle id="S2N87" type="standard_car" route="S2N" depart="230.80763257264053" departLane="random" departSpeed="10" />
<vehicle id="W2E88" type="standard_car" route="W2E" depart="243.01103792715816" departLane="random" departSpeed="10" />
<vehicle id="S2N89" type="standard_car" route="S2N" depart="246.7267408496534" departLane="random" departSpeed="10" />
<vehicle id="W2E90" type="standard_car" route="W2E" depart="258.938019411679" departLane="random" departSpeed="10" />
<vehicle id="S2N91" type="standard_car" route="S2N" depart="263.2653587516848" departLane="random" departSpeed="10" />
<vehicle id="N2S92" type="standard_car" route="N2S" depart="263.6149117130659" departLane="random" departSpeed="10" />
<vehicle id="E2W93" type="standard_car" route="E2W" depart="267.2685934301477" departLane="random" departSpeed="10" />
<vehicle id="W2E94" type="standard_car" route="W2E" depart="272.457944609488" departLane="random" departSpeed="10" />
<vehicle id="S2N95" type="standard_car" route="S2N" depart="281.2038196557991" departLane="random" departSpeed="10" />
<vehicle id="S2N96" type="standard_car" route="S2N" depart="283.2334940522087" departLane="random" departSpeed="10" />
<vehicle id="E2W97" type="standard_car" route="E2W" depart="336.27533621783226" departLane="random" departSpeed="10" />
<vehicle id="W2E98" type="standard_car" route="W2E" depart="348.45862246217956" departLane="random" departSpeed="10" />
<vehicle id="W2E99" type="standard_car" route="W2E" depart="400.0" departLane="random" departSpeed="10" />
</routes>
