<?xml version="1.0" encoding="UTF-8"?>

            <routes xmlns:xsi="http://www.w3.org/2001/XMLSchema-instance">
   
            <vType accel="1.0" decel="4.5" id="standard_car" length="5.0" minGap="2.5" maxSpeed="25" sigma="0.5" />) 
            
            <route id="N2W" edges="-125514711 125514713"/>
            <route id="N2S" edges="-125514711 -125514709"/>
            <route id="N2E" edges="-125514711 -548975769"/>     
            <route id="W2N" edges="-125514713 125514711"/>
            <route id="W2E" edges="-125514713 -548975769"/>
            <route id="W2S" edges="-125514711 -125514709"/>
            <route id="S2W" edges="125514709 125514713"/>
            <route id="S2N" edges="125514709 125514711"/>
            <route id="S2E" edges="-125514711 -548975769"/>
            <route id="E2S" edges="548975769 -125514709"/>
            <route id="E2W" edges="548975769 125514713"/>
            <route id="E2N" edges="548975769 125514711"/>
            
<vehicle id="N2S0" type="standard_car" route="N2S" depart="39.6274715169707" departLane="random" departSpeed="10" />
<vehicle id="E2S1" type="standard_car" route="E2S" depart="48.33968802411234" departLane="random" departSpeed="10" />
<vehicle id="N2S2" type="standard_car" route="N2S" depart="50.61135430969731" departLane="random" departSpeed="10" />
<vehicle id="W2E3" type="standard_car" route="W2E" depart="51.28734788541205" departLane="random" departSpeed="10" />
<vehicle id="E2W4" type="standard_car" route="E2W" depart="53.89956090603694" departLane="random" departSpeed="10" />
<vehicle id="W2E5" type="standard_car" route="W2E" depart="56.18590045154178" departLane="random" departSpeed="10" />
<vehicle id="S2N6" type="standard_car" route="S2N" depart="58.008066293905834" departLane="random" departSpeed="10" />
<vehicle id="W2E7" type="standard_car" route="W2E" depart="67.3272286053962" departLane="random" departSpeed="10" />
<vehicle id="W2E8" type="standard_car" route="W2E" depart="70.0698198639632" departLane="random" departSpeed="10" />
<vehicle id="E2S9" type="standard_car" route="E2S" depart="70.29142790575446" departLane="random" departSpeed="10" />
<vehicle id="E2W10" type="standard_car" route="E2W" depart="72.13650017623777" departLane="random" departSpeed="10" />
<vehicle id="E2W11" type="standard_car" route="E2W" depart="75.54751570221973" departLane="random" departSpeed="10" />
<vehicle id="N2S12" type="standard_car" route="N2S" depart="79.26922761414758" departLane="random" departSpeed="10" />
<vehicle id="E2W13" type="standard_car" route="E2W" depart="81.87991750168662" departLane="random" departSpeed="10" />
<vehicle id="N2S14" type="standard_car" route="N2S" depart="85.57872313223584" departLane="random" departSpeed="10" />
<vehicle id="E2W15" type="standard_car" route="E2W" depart="88.28151717263987" departLane="random" departSpeed="10" />
<vehicle id="E2W16" type="standard_car" route="E2W" depart="88.9181157340983" departLane="random" departSpeed="10" />
<vehicle id="S2N17" type="standard_car" route="S2N" depart="94.10333736910496" departLane="random" departSpeed="10" />
<vehicle id="E2W18" type="standard_car" route="E2W" depart="97.30709416672248" departLane="random" departSpeed="10" />
<vehicle id="N2S19" type="standard_car" route="N2S" depart="98.11350287657692" departLane="random" departSpeed="10" />
<vehicle id="N2S20" type="standard_car" route="N2S" depart="99.59347288701477" departLane="random" departSpeed="10" />
<vehicle id="N2S21" type="standard_car" route="N2S" depart="99.92405304904992" departLane="random" departSpeed="10" />
<vehicle id="W2E22" type="standard_car" route="W2E" depart="102.73792135545379" departLane="random" departSpeed="10" />
<vehicle id="N2S23" type="standard_car" route="N2S" depart="102.88194285452235" departLane="random" departSpeed="10" />
<vehicle id="W2E24" type="standard_car" route="W2E" depart="121.40958555298374" departLane="random" departSpeed="10" />
<vehicle id="W2E25" type="standard_car" route="W2E" depart="127.44520725847688" departLane="random" departSpeed="10" />
<vehicle id="W2E26" type="standard_car" route="W2E" depart="130.84443911192417" departLane="random" departSpeed="10" />
<vehicle id="S2N27" type="standard_car" route="S2N" depart="131.3583496423519" departLane="random" departSpeed="10" />
<vehicle id="W2E28" type="standard_car" route="W2E" depart="132.62159076684114" departLane="random" departSpeed="10" />
<vehicle id="S2N29" type="standard_car" route="S2N" depart="135.26820285280223" departLane="random" departSpeed="10" />
<vehicle id="N2W30" type="standard_car" route="N2W" depart="137.90010667960038" departLane="random" departSpeed="10" />
<vehicle id="E2W31" type="standard_car" route="E2W" depart="147.55188182600833" departLane="random" departSpeed="10" />
<vehicle id="E2W32" type="standard_car" route="E2W" depart="148.042679095606" departLane="random" departSpeed="10" />
<vehicle id="S2N33" type="standard_car" route="S2N" depart="150.53968790429988" departLane="random" departSpeed="10" />
<vehicle id="E2W34" type="standard_car" route="E2W" depart="151.69193316767456" departLane="random" departSpeed="10" />
<vehicle id="W2E35" type="standard_car" route="W2E" depart="156.5473292520431" departLane="random" departSpeed="10" />
<vehicle id="N2S36" type="standard_car" route="N2S" depart="157.16183725958567" departLane="random" departSpeed="10" />
<vehicle id="N2W37" type="standard_car" route="N2W" depart="162.59739131775794" departLane="random" departSpeed="10" />
<vehicle id="E2W38" type="standard_car" route="E2W" depart="165.8480814898586" departLane="random" departSpeed="10" />
<vehicle id="N2S39" type="standard_car" route="N2S" depart="168.66939719766384" departLane="random" departSpeed="10" />
<vehicle id="S2N40" type="standard_car" route="S2N" depart="173.9270159292843" departLane="random" departSpeed="10" />
<vehicle id="W2E41" type="standard_car" route="W2E" depart="176.77864881922298" departLane="random" departSpeed="10" />
<vehicle id="W2E42" type="standard_car" route="W2E" depart="177.8280169294179" departLane="random" departSpeed="10" />
<vehicle id="W2E43" type="standard_car" route="W2E" depart="179.15890983793884" departLane="random" departSpeed="10" />
<vehicle id="S2N44" type="standard_car" route="S2N" depart="180.93387407309945" departLane="random" departSpeed="10" />
<vehicle id="W2E45" type="standard_car" route="W2E" depart="181.78997821784714" departLane="random" departSpeed="10" />
<vehicle id="W2E46" type="standard_car" route="W2E" depart="186.1612415997053" departLane="random" departSpeed="10" />
<vehicle id="E2N47" type="standard_car" route="E2N" depart="187.9896135613438" departLane="random" departSpeed="10" />
<vehicle id="N2S48" type="standard_car" route="N2S" depart="188.05865673510647" departLane="random" departSpeed="10" />
<vehicle id="N2S49" type="standard_car" route="N2S" depart="189.77865408089212" departLane="random" departSpeed="10" />
<vehicle id="W2S50" type="standard_car" route="W2S" depart="191.98668538793257" departLane="random" departSpeed="10" />
<vehicle id="W2E51" type="standard_car" route="W2E" depart="192.06900284228962" departLane="random" departSpeed="10" />
<vehicle id="W2S52" type="standard_car" route="W2S" depart="193.25481823683896" departLane="random" departSpeed="10" />
<vehicle id="S2W53" type="standard_car" route="S2W" depart="197.1061046223109" departLane="random" departSpeed="10" />
<vehicle id="S2N54" type="standard_car" route="S2N" depart="197.25510851729643" departLane="random" departSpeed="10" />
<vehicle id="N2S55" type="standard_car" route="N2S" depart="197.8909571324389" departLane="random" departSpeed="10" />
<vehicle id="W2E56" type="standard_car" route="W2E" depart="198.6672903187505" departLane="random" departSpeed="10" />
<vehicle id="S2W57" type="standard_car" route="S2W" depart="199.86492588103448" departLane="random" departSpeed="10" />
<vehicle id="W2E58" type="standard_car" route="W2E" depart="200.06980505797654" departLane="random" departSpeed="10" />
<vehicle id="N2S59" type="standard_car" route="N2S" depart="200.36621171276445" departLane="random" departSpeed="10" />
<vehicle id="S2W60" type="standard_car" route="S2W" depart="203.32274258494294" departLane="random" departSpeed="10" />
<vehicle id="S2W61" type="standard_car" route="S2W" depart="204.1210642936235" departLane="random" departSpeed="10" />
<vehicle id="E2W62" type="standard_car" route="E2W" depart="206.62289568814273" departLane="random" departSpeed="10" />
<vehicle id="W2E63" type="standard_car" route="W2E" depart="207.68816845021988" departLane="random" departSpeed="10" />
<vehicle id="S2N64" type="standard_car" route="S2N" depart="210.51079334367842" departLane="random" departSpeed="10" />
<vehicle id="N2S65" type="standard_car" route="N2S" depart="210.5454714652747" departLane="random" departSpeed="10" />
<vehicle id="N2S66" type="standard_car" route="N2S" depart="210.62217468085998" departLane="random" departSpeed="10" />
<vehicle id="N2S67" type="standard_car" route="N2S" depart="212.20124032534875" departLane="random" departSpeed="10" />
<vehicle id="E2W68" type="standard_car" route="E2W" depart="215.36370750576185" departLane="random" departSpeed="10" />
<vehicle id="S2N69" type="standard_car" route="S2N" depart="226.57344737945297" departLane="random" departSpeed="10" />
<vehicle id="S2W70" type="standard_car" route="S2W" depart="226.7041656790624" departLane="random" departSpeed="10" />
<vehicle id="N2S71" type="standard_car" route="N2S" depart="226.80328046935034" departLane="random" departSpeed="10" />
<vehicle id="N2S72" type="standard_car" route="N2S" depart="227.80453786309852" departLane="random" departSpeed="10" />
<vehicle id="S2N73" type="standard_car" route="S2N" depart="228.9114262874978" departLane="random" departSpeed="10" />
<vehicle id="S2N74" type="standard_car" route="S2N" depart="230.05522208760996" departLane="random" departSpeed="10" />
<vehicle id="E2W75" type="standard_car" route="E2W" depart="233.40662276037799" departLane="random" departSpeed="10" />
<vehicle id="N2S76" type="standard_car" route="N2S" depart="234.9907515825663" departLane="random" departSpeed="10" />
<vehicle id="N2E77" type="standard_car" route="N2E" depart="236.85962929133115" departLane="random" departSpeed="10" />
<vehicle id="W2E78" type="standard_car" route="W2E" depart="241.47390628076272" departLane="random" departSpeed="10" />
<vehicle id="W2E79" type="standard_car" route="W2E" depart="242.03234195900367" departLane="random" departSpeed="10" />
<vehicle id="N2S80" type="standard_car" route="N2S" depart="249.60264463767712" departLane="random" departSpeed="10" />
<vehicle id="E2W81" type="standard_car" route="E2W" depart="253.8853729871785" departLane="random" departSpeed="10" />
<vehicle id="S2W82" type="standard_car" route="S2W" depart="266.39844148454216" departLane="random" departSpeed="10" />
<vehicle id="W2N83" type="standard_car" route="W2N" depart="272.69371853331523" departLane="random" departSpeed="10" />
<vehicle id="E2W84" type="standard_car" route="E2W" depart="284.5586935966446" departLane="random" departSpeed="10" />
<vehicle id="S2N85" type="standard_car" route="S2N" depart="288.03582561663205" departLane="random" departSpeed="10" />
<vehicle id="E2W86" type="standard_car" route="E2W" depart="294.14738431285707" departLane="random" departSpeed="10" />
<vehicle id="E2W87" type="standard_car" route="E2W" depart="294.7621937641311" departLane="random" departSpeed="10" />
<vehicle id="E2W88" type="standard_car" route="E2W" depart="295.4568514558997" departLane="random" departSpeed="10" />
<vehicle id="W2S89" type="standard_car" route="W2S" depart="298.3374149041375" departLane="random" departSpeed="10" />
<vehicle id="S2W90" type="standard_car" route="S2W" depart="298.43138954479156" departLane="random" departSpeed="10" />
<vehicle id="W2E91" type="standard_car" route="W2E" depart="299.129521812983" departLane="random" departSpeed="10" />
<vehicle id="W2N92" type="standard_car" route="W2N" depart="315.5366172083997" departLane="random" departSpeed="10" />
<vehicle id="W2N93" type="standard_car" route="W2N" depart="318.85610955427285" departLane="random" departSpeed="10" />
<vehicle id="E2S94" type="standard_car" route="E2S" depart="344.49676616911205" departLane="random" departSpeed="10" />
<vehicle id="N2S95" type="standard_car" route="N2S" depart="371.07166164566866" departLane="random" departSpeed="10" />
<vehicle id="N2E96" type="standard_car" route="N2E" depart="371.091104883356" departLane="random" departSpeed="10" />
<vehicle id="N2S97" type="standard_car" route="N2S" depart="456.9337771852133" departLane="random" departSpeed="10" />
<vehicle id="N2S98" type="standard_car" route="N2S" depart="489.9242352095081" departLane="random" departSpeed="10" />
<vehicle id="E2W99" type="standard_car" route="E2W" depart="500.0" departLane="random" departSpeed="10" />
</routes>
