<?xml version="1.0" encoding="UTF-8"?>

            <routes xmlns:xsi="http://www.w3.org/2001/XMLSchema-instance">
   
            <vType accel="1.0" decel="4.5" id="standard_car" length="5.0" minGap="2.5" maxSpeed="25" sigma="0.5" />) 
            
            <route id="N2W" edges="-125514711 125514713"/>
            <route id="N2S" edges="-125514711 -125514709"/>
            <route id="N2E" edges="-125514711 -548975769"/>     
            <route id="W2N" edges="-125514713 125514711"/>
            <route id="W2E" edges="-125514713 -548975769"/>
            <route id="W2S" edges="-125514711 -125514709"/>
            <route id="S2W" edges="125514709 125514713"/>
            <route id="S2N" edges="125514709 125514711"/>
            <route id="S2E" edges="-125514711 -548975769"/>
            <route id="E2S" edges="548975769 -125514709"/>
            <route id="E2W" edges="548975769 125514713"/>
            <route id="E2N" edges="548975769 125514711"/>
            
<vehicle id="S2N0" type="standard_car" route="S2N" depart="38.76747304299759" departLane="random" departSpeed="10" />
<vehicle id="S2W1" type="standard_car" route="S2W" depart="38.95677652638283" departLane="random" departSpeed="10" />
<vehicle id="S2N2" type="standard_car" route="S2N" depart="40.4142762672181" departLane="random" departSpeed="10" />
<vehicle id="W2E3" type="standard_car" route="W2E" depart="44.73300479881887" departLane="random" departSpeed="10" />
<vehicle id="E2W4" type="standard_car" route="E2W" depart="46.45287375431061" departLane="random" departSpeed="10" />
<vehicle id="S2N5" type="standard_car" route="S2N" depart="46.86081921337538" departLane="random" departSpeed="10" />
<vehicle id="N2S6" type="standard_car" route="N2S" depart="49.40148429568359" departLane="random" departSpeed="10" />
<vehicle id="W2E7" type="standard_car" route="W2E" depart="53.44733292551659" departLane="random" departSpeed="10" />
<vehicle id="W2S8" type="standard_car" route="W2S" depart="55.76816639850448" departLane="random" departSpeed="10" />
<vehicle id="N2S9" type="standard_car" route="N2S" depart="61.668896500385664" departLane="random" departSpeed="10" />
<vehicle id="S2N10" type="standard_car" route="S2N" depart="67.1806998437354" departLane="random" departSpeed="10" />
<vehicle id="E2W11" type="standard_car" route="E2W" depart="68.99121058987087" departLane="random" departSpeed="10" />
<vehicle id="N2W12" type="standard_car" route="N2W" depart="71.22401138972471" departLane="random" departSpeed="10" />
<vehicle id="S2E13" type="standard_car" route="S2E" depart="73.7756854193896" departLane="random" departSpeed="10" />
<vehicle id="E2W14" type="standard_car" route="E2W" depart="79.09940196557082" departLane="random" departSpeed="10" />
<vehicle id="N2S15" type="standard_car" route="N2S" depart="83.3549386464439" departLane="random" departSpeed="10" />
<vehicle id="S2W16" type="standard_car" route="S2W" depart="83.99822927266278" departLane="random" departSpeed="10" />
<vehicle id="S2N17" type="standard_car" route="S2N" depart="85.0648865663898" departLane="random" departSpeed="10" />
<vehicle id="N2S18" type="standard_car" route="N2S" depart="87.41697235230565" departLane="random" departSpeed="10" />
<vehicle id="W2S19" type="standard_car" route="W2S" depart="90.34811287563315" departLane="random" departSpeed="10" />
<vehicle id="E2S20" type="standard_car" route="E2S" depart="91.47054006966229" departLane="random" departSpeed="10" />
<vehicle id="W2S21" type="standard_car" route="W2S" depart="95.73423124675651" departLane="random" departSpeed="10" />
<vehicle id="N2W22" type="standard_car" route="N2W" depart="98.46429453251437" departLane="random" departSpeed="10" />
<vehicle id="W2E23" type="standard_car" route="W2E" depart="101.0355812932675" departLane="random" departSpeed="10" />
<vehicle id="N2S24" type="standard_car" route="N2S" depart="117.79922471040443" departLane="random" departSpeed="10" />
<vehicle id="E2S25" type="standard_car" route="E2S" depart="118.98589636837141" departLane="random" departSpeed="10" />
<vehicle id="E2W26" type="standard_car" route="E2W" depart="125.895356111224" departLane="random" departSpeed="10" />
<vehicle id="S2N27" type="standard_car" route="S2N" depart="126.31330096572539" departLane="random" departSpeed="10" />
<vehicle id="S2N28" type="standard_car" route="S2N" depart="127.0923010041666" departLane="random" departSpeed="10" />
<vehicle id="S2W29" type="standard_car" route="S2W" depart="133.94798774813736" departLane="random" departSpeed="10" />
<vehicle id="S2N30" type="standard_car" route="S2N" depart="133.98970406850796" departLane="random" departSpeed="10" />
<vehicle id="W2E31" type="standard_car" route="W2E" depart="138.0748998648732" departLane="random" departSpeed="10" />
<vehicle id="S2N32" type="standard_car" route="S2N" depart="150.5821025271505" departLane="random" departSpeed="10" />
<vehicle id="W2N33" type="standard_car" route="W2N" depart="160.69590097145766" departLane="random" departSpeed="10" />
<vehicle id="E2W34" type="standard_car" route="E2W" depart="164.04917070767232" departLane="random" departSpeed="10" />
<vehicle id="N2W35" type="standard_car" route="N2W" depart="164.9186307369798" departLane="random" departSpeed="10" />
<vehicle id="S2N36" type="standard_car" route="S2N" depart="172.35904639998915" departLane="random" departSpeed="10" />
<vehicle id="S2N37" type="standard_car" route="S2N" depart="204.64265683100524" departLane="random" departSpeed="10" />
<vehicle id="N2W38" type="standard_car" route="N2W" depart="218.0234026123583" departLane="random" departSpeed="10" />
<vehicle id="N2S39" type="standard_car" route="N2S" depart="300.0" departLane="random" departSpeed="10" />
</routes>
