<?xml version="1.0" encoding="UTF-8"?>

            <routes xmlns:xsi="http://www.w3.org/2001/XMLSchema-instance">
                  
            <vType accel="1.0" decel="4.5" id="standard_car" length="5.0" minGap="2.5" maxSpeed="25" sigma="0.5" />) 
            
            <route id="N2W" edges="-125514711 125514713"/>
            <route id="N2S" edges="-125514711 -125514709"/>
            <route id="N2E" edges="-125514711 -548975769"/>     
            <route id="W2N" edges="-125514713 125514711"/>
            <route id="W2E" edges="-125514713 -548975769"/>
            <route id="W2S" edges="-125514711 -125514709"/>
            <route id="S2W" edges="125514709 125514713"/>
            <route id="S2N" edges="125514709 125514711"/>
            <route id="S2E" edges="-125514711 -548975769"/>
            <route id="E2S" edges="548975769 -125514709"/>
            <route id="E2W" edges="548975769 125514713"/>
            <route id="E2N" edges="548975769 125514711"/>
            
<vehicle id="E2N0" type="standard_car" route="E2N" depart="8.106646534826009" departLane="random" departSpeed="10" />
<vehicle id="N2S1" type="standard_car" route="N2S" depart="13.040650263026649" departLane="random" departSpeed="10" />
<vehicle id="S2W2" type="standard_car" route="S2W" depart="13.515654476831223" departLane="random" departSpeed="10" />
<vehicle id="E2S3" type="standard_car" route="E2S" depart="14.207814385020423" departLane="random" departSpeed="10" />
<vehicle id="S2W4" type="standard_car" route="S2W" depart="15.950980636888918" departLane="random" departSpeed="10" />
<vehicle id="S2E5" type="standard_car" route="S2E" depart="17.163755713878654" departLane="random" departSpeed="10" />
<vehicle id="W2S6" type="standard_car" route="W2S" depart="19.009622052172606" departLane="random" departSpeed="10" />
<vehicle id="E2N7" type="standard_car" route="E2N" depart="19.378568919192084" departLane="random" departSpeed="10" />
<vehicle id="E2W8" type="standard_car" route="E2W" depart="20.46199854187558" departLane="random" departSpeed="10" />
<vehicle id="E2S9" type="standard_car" route="E2S" depart="21.16449856000113" departLane="random" departSpeed="10" />
<vehicle id="E2N10" type="standard_car" route="E2N" depart="21.190379119660367" departLane="random" departSpeed="10" />
<vehicle id="W2N11" type="standard_car" route="W2N" depart="22.299958159909714" departLane="random" departSpeed="10" />
<vehicle id="E2W12" type="standard_car" route="E2W" depart="23.67577359771854" departLane="random" departSpeed="10" />
<vehicle id="E2S13" type="standard_car" route="E2S" depart="24.741177002176716" departLane="random" departSpeed="10" />
<vehicle id="E2N14" type="standard_car" route="E2N" depart="24.997919652588045" departLane="random" departSpeed="10" />
<vehicle id="W2S15" type="standard_car" route="W2S" depart="25.119900747890057" departLane="random" departSpeed="10" />
<vehicle id="N2W16" type="standard_car" route="N2W" depart="25.147376266830356" departLane="random" departSpeed="10" />
<vehicle id="S2E17" type="standard_car" route="S2E" depart="26.68020259719533" departLane="random" departSpeed="10" />
<vehicle id="E2W18" type="standard_car" route="E2W" depart="26.825050787249715" departLane="random" departSpeed="10" />
<vehicle id="N2W19" type="standard_car" route="N2W" depart="27.284203807024603" departLane="random" departSpeed="10" />
<vehicle id="E2W20" type="standard_car" route="E2W" depart="27.743553406645425" departLane="random" departSpeed="10" />
<vehicle id="W2N21" type="standard_car" route="W2N" depart="28.284353548036584" departLane="random" departSpeed="10" />
<vehicle id="N2S22" type="standard_car" route="N2S" depart="29.060005528300575" departLane="random" departSpeed="10" />
<vehicle id="N2E23" type="standard_car" route="N2E" depart="29.704928260681452" departLane="random" departSpeed="10" />
<vehicle id="N2E24" type="standard_car" route="N2E" depart="29.945138057737843" departLane="random" departSpeed="10" />
<vehicle id="W2E25" type="standard_car" route="W2E" depart="31.793751669729247" departLane="random" departSpeed="10" />
<vehicle id="E2S26" type="standard_car" route="E2S" depart="32.696240763152026" departLane="random" departSpeed="10" />
<vehicle id="N2E27" type="standard_car" route="N2E" depart="34.112908431720854" departLane="random" departSpeed="10" />
<vehicle id="E2S28" type="standard_car" route="E2S" depart="34.38237772502206" departLane="random" departSpeed="10" />
<vehicle id="S2W29" type="standard_car" route="S2W" depart="34.53223653785214" departLane="random" departSpeed="10" />
<vehicle id="E2N30" type="standard_car" route="E2N" depart="35.802186922694986" departLane="random" departSpeed="10" />
<vehicle id="E2W31" type="standard_car" route="E2W" depart="36.41421023417443" departLane="random" departSpeed="10" />
<vehicle id="S2N32" type="standard_car" route="S2N" depart="36.92159547355885" departLane="random" departSpeed="10" />
<vehicle id="N2S33" type="standard_car" route="N2S" depart="38.16851286631538" departLane="random" departSpeed="10" />
<vehicle id="W2S34" type="standard_car" route="W2S" depart="39.24969962245454" departLane="random" departSpeed="10" />
<vehicle id="S2W35" type="standard_car" route="S2W" depart="40.786585558846625" departLane="random" departSpeed="10" />
<vehicle id="S2W36" type="standard_car" route="S2W" depart="42.43990220050853" departLane="random" departSpeed="10" />
<vehicle id="N2S37" type="standard_car" route="N2S" depart="42.672910403386346" departLane="random" departSpeed="10" />
<vehicle id="W2S38" type="standard_car" route="W2S" depart="42.79687139119364" departLane="random" departSpeed="10" />
<vehicle id="W2N39" type="standard_car" route="W2N" depart="44.28950189902132" departLane="random" departSpeed="10" />
<vehicle id="E2S40" type="standard_car" route="E2S" depart="46.01763045234504" departLane="random" departSpeed="10" />
<vehicle id="N2E41" type="standard_car" route="N2E" depart="47.35034834884252" departLane="random" departSpeed="10" />
<vehicle id="W2E42" type="standard_car" route="W2E" depart="47.361227882310075" departLane="random" departSpeed="10" />
<vehicle id="E2W43" type="standard_car" route="E2W" depart="48.30959359757989" departLane="random" departSpeed="10" />
<vehicle id="S2W44" type="standard_car" route="S2W" depart="48.35931822934973" departLane="random" departSpeed="10" />
<vehicle id="E2S45" type="standard_car" route="E2S" depart="48.7272338780044" departLane="random" departSpeed="10" />
<vehicle id="N2W46" type="standard_car" route="N2W" depart="49.68796133059766" departLane="random" departSpeed="10" />
<vehicle id="N2W47" type="standard_car" route="N2W" depart="49.8681072520156" departLane="random" departSpeed="10" />
<vehicle id="W2E48" type="standard_car" route="W2E" depart="50.31392406847167" departLane="random" departSpeed="10" />
<vehicle id="S2W49" type="standard_car" route="S2W" depart="52.35887758310174" departLane="random" departSpeed="10" />
<vehicle id="W2N50" type="standard_car" route="W2N" depart="52.48219080316572" departLane="random" departSpeed="10" />
<vehicle id="E2S51" type="standard_car" route="E2S" depart="52.52957294212152" departLane="random" departSpeed="10" />
<vehicle id="E2S52" type="standard_car" route="E2S" depart="52.94645497971102" departLane="random" departSpeed="10" />
<vehicle id="W2E53" type="standard_car" route="W2E" depart="53.89280028846074" departLane="random" departSpeed="10" />
<vehicle id="N2E54" type="standard_car" route="N2E" depart="56.21991785829652" departLane="random" departSpeed="10" />
<vehicle id="W2N55" type="standard_car" route="W2N" depart="56.6497612658478" departLane="random" departSpeed="10" />
<vehicle id="W2S56" type="standard_car" route="W2S" depart="56.68096248590009" departLane="random" departSpeed="10" />
<vehicle id="S2E57" type="standard_car" route="S2E" depart="56.8079444004879" departLane="random" departSpeed="10" />
<vehicle id="E2N58" type="standard_car" route="E2N" depart="58.56858752902073" departLane="random" departSpeed="10" />
<vehicle id="W2S59" type="standard_car" route="W2S" depart="58.98017418584423" departLane="random" departSpeed="10" />
<vehicle id="S2N60" type="standard_car" route="S2N" depart="59.10663265445968" departLane="random" departSpeed="10" />
<vehicle id="S2E61" type="standard_car" route="S2E" depart="59.7582107953136" departLane="random" departSpeed="10" />
<vehicle id="S2E62" type="standard_car" route="S2E" depart="60.015404547825746" departLane="random" departSpeed="10" />
<vehicle id="W2S63" type="standard_car" route="W2S" depart="60.04861260323353" departLane="random" departSpeed="10" />
<vehicle id="W2N64" type="standard_car" route="W2N" depart="60.205415417866426" departLane="random" departSpeed="10" />
<vehicle id="S2W65" type="standard_car" route="S2W" depart="61.22866252786059" departLane="random" departSpeed="10" />
<vehicle id="N2E66" type="standard_car" route="N2E" depart="61.2455808044269" departLane="random" departSpeed="10" />
<vehicle id="N2E67" type="standard_car" route="N2E" depart="61.905114572403974" departLane="random" departSpeed="10" />
<vehicle id="S2E68" type="standard_car" route="S2E" depart="63.209135750528176" departLane="random" departSpeed="10" />
<vehicle id="E2W69" type="standard_car" route="E2W" depart="63.30508287770089" departLane="random" departSpeed="10" />
<vehicle id="N2S70" type="standard_car" route="N2S" depart="64.21182640727716" departLane="random" departSpeed="10" />
<vehicle id="W2E71" type="standard_car" route="W2E" depart="64.80842822822196" departLane="random" departSpeed="10" />
<vehicle id="S2W72" type="standard_car" route="S2W" depart="65.62077836845506" departLane="random" departSpeed="10" />
<vehicle id="S2W73" type="standard_car" route="S2W" depart="65.62353676754596" departLane="random" departSpeed="10" />
<vehicle id="W2E74" type="standard_car" route="W2E" depart="66.06825419488098" departLane="random" departSpeed="10" />
<vehicle id="N2S75" type="standard_car" route="N2S" depart="66.61095884965287" departLane="random" departSpeed="10" />
<vehicle id="W2N76" type="standard_car" route="W2N" depart="66.99701748206463" departLane="random" departSpeed="10" />
<vehicle id="N2S77" type="standard_car" route="N2S" depart="68.28195627336152" departLane="random" departSpeed="10" />
<vehicle id="S2W78" type="standard_car" route="S2W" depart="68.96723959818847" departLane="random" departSpeed="10" />
<vehicle id="S2E79" type="standard_car" route="S2E" depart="69.04410617310677" departLane="random" departSpeed="10" />
<vehicle id="E2W80" type="standard_car" route="E2W" depart="69.35372374730908" departLane="random" departSpeed="10" />
<vehicle id="N2W81" type="standard_car" route="N2W" depart="70.30857816413324" departLane="random" departSpeed="10" />
<vehicle id="S2W82" type="standard_car" route="S2W" depart="71.01851426461945" departLane="random" departSpeed="10" />
<vehicle id="S2E83" type="standard_car" route="S2E" depart="71.06404896980757" departLane="random" departSpeed="10" />
<vehicle id="W2N84" type="standard_car" route="W2N" depart="71.13180041839782" departLane="random" departSpeed="10" />
<vehicle id="W2E85" type="standard_car" route="W2E" depart="71.46168607537206" departLane="random" departSpeed="10" />
<vehicle id="S2E86" type="standard_car" route="S2E" depart="72.40564573360518" departLane="random" departSpeed="10" />
<vehicle id="E2N87" type="standard_car" route="E2N" depart="72.75497159791755" departLane="random" departSpeed="10" />
<vehicle id="E2S88" type="standard_car" route="E2S" depart="73.80848635103374" departLane="random" departSpeed="10" />
<vehicle id="W2E89" type="standard_car" route="W2E" depart="74.18695116240276" departLane="random" departSpeed="10" />
<vehicle id="N2E90" type="standard_car" route="N2E" depart="75.30535917870226" departLane="random" departSpeed="10" />
<vehicle id="N2W91" type="standard_car" route="N2W" depart="76.4341400554031" departLane="random" departSpeed="10" />
<vehicle id="S2N92" type="standard_car" route="S2N" depart="76.81637693304259" departLane="random" departSpeed="10" />
<vehicle id="S2N93" type="standard_car" route="S2N" depart="77.19626519418419" departLane="random" departSpeed="10" />
<vehicle id="S2W94" type="standard_car" route="S2W" depart="77.2385288030628" departLane="random" departSpeed="10" />
<vehicle id="E2W95" type="standard_car" route="E2W" depart="77.4041359010335" departLane="random" departSpeed="10" />
<vehicle id="S2E96" type="standard_car" route="S2E" depart="78.42056723042067" departLane="random" departSpeed="10" />
<vehicle id="W2S97" type="standard_car" route="W2S" depart="78.90897723998319" departLane="random" departSpeed="10" />
<vehicle id="E2N98" type="standard_car" route="E2N" depart="79.43363884129523" departLane="random" departSpeed="10" />
<vehicle id="E2S99" type="standard_car" route="E2S" depart="79.55672669095526" departLane="random" departSpeed="10" />
<vehicle id="W2E100" type="standard_car" route="W2E" depart="79.95972976637918" departLane="random" departSpeed="10" />
<vehicle id="N2W101" type="standard_car" route="N2W" depart="80.11828821886242" departLane="random" departSpeed="10" />
<vehicle id="W2N102" type="standard_car" route="W2N" depart="80.73111308342882" departLane="random" departSpeed="10" />
<vehicle id="N2E103" type="standard_car" route="N2E" depart="81.0991794733424" departLane="random" departSpeed="10" />
<vehicle id="N2S104" type="standard_car" route="N2S" depart="81.19934443837622" departLane="random" departSpeed="10" />
<vehicle id="W2N105" type="standard_car" route="W2N" depart="81.56701673470835" departLane="random" departSpeed="10" />
<vehicle id="S2N106" type="standard_car" route="S2N" depart="82.16731261030358" departLane="random" departSpeed="10" />
<vehicle id="E2N107" type="standard_car" route="E2N" depart="82.58104134012922" departLane="random" departSpeed="10" />
<vehicle id="W2N108" type="standard_car" route="W2N" depart="83.76851547850166" departLane="random" departSpeed="10" />
<vehicle id="E2S109" type="standard_car" route="E2S" depart="84.19141323619502" departLane="random" departSpeed="10" />
<vehicle id="E2N110" type="standard_car" route="E2N" depart="85.00834132832425" departLane="random" departSpeed="10" />
<vehicle id="S2E111" type="standard_car" route="S2E" depart="87.34454396061618" departLane="random" departSpeed="10" />
<vehicle id="E2N112" type="standard_car" route="E2N" depart="87.87348709898788" departLane="random" departSpeed="10" />
<vehicle id="E2W113" type="standard_car" route="E2W" depart="88.75884781305909" departLane="random" departSpeed="10" />
<vehicle id="E2N114" type="standard_car" route="E2N" depart="88.95998835209788" departLane="random" departSpeed="10" />
<vehicle id="E2W115" type="standard_car" route="E2W" depart="89.01352048672965" departLane="random" departSpeed="10" />
<vehicle id="W2N116" type="standard_car" route="W2N" depart="89.61347849854934" departLane="random" departSpeed="10" />
<vehicle id="N2W117" type="standard_car" route="N2W" depart="90.28123340876031" departLane="random" departSpeed="10" />
<vehicle id="W2N118" type="standard_car" route="W2N" depart="90.8110328881678" departLane="random" departSpeed="10" />
<vehicle id="W2S119" type="standard_car" route="W2S" depart="91.24834185740762" departLane="random" departSpeed="10" />
<vehicle id="N2E120" type="standard_car" route="N2E" depart="91.68229250475959" departLane="random" departSpeed="10" />
<vehicle id="S2W121" type="standard_car" route="S2W" depart="92.43428369732231" departLane="random" departSpeed="10" />
<vehicle id="E2N122" type="standard_car" route="E2N" depart="92.48133142549023" departLane="random" departSpeed="10" />
<vehicle id="N2W123" type="standard_car" route="N2W" depart="92.95110008871731" departLane="random" departSpeed="10" />
<vehicle id="W2N124" type="standard_car" route="W2N" depart="93.55846817599807" departLane="random" departSpeed="10" />
<vehicle id="S2N125" type="standard_car" route="S2N" depart="93.91481752571283" departLane="random" departSpeed="10" />
<vehicle id="N2W126" type="standard_car" route="N2W" depart="94.32917970677389" departLane="random" departSpeed="10" />
<vehicle id="S2N127" type="standard_car" route="S2N" depart="94.45887446576509" departLane="random" departSpeed="10" />
<vehicle id="S2W128" type="standard_car" route="S2W" depart="95.34632755509797" departLane="random" departSpeed="10" />
<vehicle id="W2E129" type="standard_car" route="W2E" depart="95.57344860709934" departLane="random" departSpeed="10" />
<vehicle id="N2W130" type="standard_car" route="N2W" depart="95.64925613603292" departLane="random" departSpeed="10" />
<vehicle id="S2W131" type="standard_car" route="S2W" depart="95.70117179519812" departLane="random" departSpeed="10" />
<vehicle id="W2N132" type="standard_car" route="W2N" depart="96.15997148824219" departLane="random" departSpeed="10" />
<vehicle id="W2E133" type="standard_car" route="W2E" depart="97.40389020916095" departLane="random" departSpeed="10" />
<vehicle id="N2E134" type="standard_car" route="N2E" depart="97.82996071769072" departLane="random" departSpeed="10" />
<vehicle id="W2N135" type="standard_car" route="W2N" depart="98.72820651681182" departLane="random" departSpeed="10" />
<vehicle id="E2N136" type="standard_car" route="E2N" depart="99.94353337907437" departLane="random" departSpeed="10" />
<vehicle id="N2E137" type="standard_car" route="N2E" depart="99.97932354902849" departLane="random" departSpeed="10" />
<vehicle id="N2S138" type="standard_car" route="N2S" depart="100.78968434265275" departLane="random" departSpeed="10" />
<vehicle id="S2E139" type="standard_car" route="S2E" depart="100.91263975950471" departLane="random" departSpeed="10" />
<vehicle id="E2S140" type="standard_car" route="E2S" depart="101.95508060597128" departLane="random" departSpeed="10" />
<vehicle id="S2W141" type="standard_car" route="S2W" depart="101.9913294962335" departLane="random" departSpeed="10" />
<vehicle id="S2N142" type="standard_car" route="S2N" depart="102.5792431111491" departLane="random" departSpeed="10" />
<vehicle id="E2W143" type="standard_car" route="E2W" depart="103.9230129019691" departLane="random" departSpeed="10" />
<vehicle id="N2E144" type="standard_car" route="N2E" depart="104.03907720494266" departLane="random" departSpeed="10" />
<vehicle id="S2N145" type="standard_car" route="S2N" depart="105.2833049663625" departLane="random" departSpeed="10" />
<vehicle id="N2W146" type="standard_car" route="N2W" depart="105.47140010265356" departLane="random" departSpeed="10" />
<vehicle id="E2N147" type="standard_car" route="E2N" depart="106.29636433464624" departLane="random" departSpeed="10" />
<vehicle id="E2S148" type="standard_car" route="E2S" depart="107.7677217941717" departLane="random" departSpeed="10" />
<vehicle id="N2S149" type="standard_car" route="N2S" depart="107.78557920908747" departLane="random" departSpeed="10" />
<vehicle id="S2W150" type="standard_car" route="S2W" depart="108.0292018713378" departLane="random" departSpeed="10" />
<vehicle id="E2S151" type="standard_car" route="E2S" depart="108.37545295071467" departLane="random" departSpeed="10" />
<vehicle id="W2N152" type="standard_car" route="W2N" depart="108.89775761422307" departLane="random" departSpeed="10" />
<vehicle id="E2S153" type="standard_car" route="E2S" depart="109.98145982317233" departLane="random" departSpeed="10" />
<vehicle id="W2N154" type="standard_car" route="W2N" depart="110.27127016270073" departLane="random" departSpeed="10" />
<vehicle id="E2N155" type="standard_car" route="E2N" depart="111.31583567822634" departLane="random" departSpeed="10" />
<vehicle id="W2N156" type="standard_car" route="W2N" depart="112.8519826693333" departLane="random" departSpeed="10" />
<vehicle id="S2W157" type="standard_car" route="S2W" depart="113.26086072551564" departLane="random" departSpeed="10" />
<vehicle id="E2S158" type="standard_car" route="E2S" depart="114.4539196719891" departLane="random" departSpeed="10" />
<vehicle id="E2S159" type="standard_car" route="E2S" depart="114.66169718342552" departLane="random" departSpeed="10" />
<vehicle id="S2E160" type="standard_car" route="S2E" depart="114.88447281977557" departLane="random" departSpeed="10" />
<vehicle id="S2E161" type="standard_car" route="S2E" depart="115.46897376507093" departLane="random" departSpeed="10" />
<vehicle id="W2N162" type="standard_car" route="W2N" depart="115.63413833486646" departLane="random" departSpeed="10" />
<vehicle id="W2N163" type="standard_car" route="W2N" depart="116.14008336703534" departLane="random" departSpeed="10" />
<vehicle id="S2W164" type="standard_car" route="S2W" depart="116.19598431260255" departLane="random" departSpeed="10" />
<vehicle id="N2W165" type="standard_car" route="N2W" depart="117.22338268691442" departLane="random" departSpeed="10" />
<vehicle id="E2N166" type="standard_car" route="E2N" depart="117.23771016568554" departLane="random" departSpeed="10" />
<vehicle id="N2E167" type="standard_car" route="N2E" depart="117.36774973245605" departLane="random" departSpeed="10" />
<vehicle id="S2W168" type="standard_car" route="S2W" depart="120.13223948354603" departLane="random" departSpeed="10" />
<vehicle id="E2N169" type="standard_car" route="E2N" depart="121.00190925670455" departLane="random" departSpeed="10" />
<vehicle id="W2S170" type="standard_car" route="W2S" depart="121.24245446858953" departLane="random" departSpeed="10" />
<vehicle id="S2E171" type="standard_car" route="S2E" depart="121.62523502661926" departLane="random" departSpeed="10" />
<vehicle id="E2W172" type="standard_car" route="E2W" depart="127.81012588366372" departLane="random" departSpeed="10" />
<vehicle id="N2S173" type="standard_car" route="N2S" depart="132.56911387707632" departLane="random" departSpeed="10" />
<vehicle id="S2N174" type="standard_car" route="S2N" depart="135.1316598630077" departLane="random" departSpeed="10" />
<vehicle id="E2N175" type="standard_car" route="E2N" depart="140.35402239785947" departLane="random" departSpeed="10" />
<vehicle id="W2N176" type="standard_car" route="W2N" depart="141.62759765377" departLane="random" departSpeed="10" />
<vehicle id="N2W177" type="standard_car" route="N2W" depart="150.65047843483507" departLane="random" departSpeed="10" />
<vehicle id="N2E178" type="standard_car" route="N2E" depart="151.20381051555518" departLane="random" departSpeed="10" />
<vehicle id="W2N179" type="standard_car" route="W2N" depart="154.79059695481408" departLane="random" departSpeed="10" />
<vehicle id="W2N180" type="standard_car" route="W2N" depart="157.55162099853314" departLane="random" departSpeed="10" />
<vehicle id="S2W181" type="standard_car" route="S2W" depart="159.02772986084256" departLane="random" departSpeed="10" />
<vehicle id="N2W182" type="standard_car" route="N2W" depart="159.24033237001584" departLane="random" departSpeed="10" />
<vehicle id="N2W183" type="standard_car" route="N2W" depart="181.46938935632093" departLane="random" departSpeed="10" />
<vehicle id="E2S184" type="standard_car" route="E2S" depart="182.0703662025052" departLane="random" departSpeed="10" />
<vehicle id="E2N185" type="standard_car" route="E2N" depart="187.91090486571315" departLane="random" departSpeed="10" />
<vehicle id="W2S186" type="standard_car" route="W2S" depart="195.85071593421364" departLane="random" departSpeed="10" />
<vehicle id="E2S187" type="standard_car" route="E2S" depart="196.4701965056473" departLane="random" departSpeed="10" />
<vehicle id="W2N188" type="standard_car" route="W2N" depart="199.0400049662729" departLane="random" departSpeed="10" />
<vehicle id="N2S189" type="standard_car" route="N2S" depart="200.0" departLane="random" departSpeed="10" />
</routes>
