<?xml version="1.0" encoding="UTF-8"?>

            <routes xmlns:xsi="http://www.w3.org/2001/XMLSchema-instance">
   
            <vType accel="1.0" decel="4.5" id="standard_car" length="5.0" minGap="2.5" maxSpeed="25" sigma="0.5" />) 
            
            <route id="N2W" edges="-125514711 125514713"/>
            <route id="N2S" edges="-125514711 -125514709"/>
            <route id="N2E" edges="-125514711 -548975769"/>     
            <route id="W2N" edges="-125514713 125514711"/>
            <route id="W2E" edges="-125514713 -548975769"/>
            <route id="W2S" edges="-125514711 -125514709"/>
            <route id="S2W" edges="125514709 125514713"/>
            <route id="S2N" edges="125514709 125514711"/>
            <route id="S2E" edges="-125514711 -548975769"/>
            <route id="E2S" edges="548975769 -125514709"/>
            <route id="E2W" edges="548975769 125514713"/>
            <route id="E2N" edges="548975769 125514711"/>
            
<vehicle id="S2E0" type="standard_car" route="S2E" depart="14.687237672077579" departLane="random" departSpeed="10" />
<vehicle id="E2W1" type="standard_car" route="E2W" depart="17.151033475988786" departLane="random" departSpeed="10" />
<vehicle id="S2N2" type="standard_car" route="S2N" depart="24.173028499705744" departLane="random" departSpeed="10" />
<vehicle id="W2E3" type="standard_car" route="W2E" depart="25.269132022078733" departLane="random" departSpeed="10" />
<vehicle id="N2S4" type="standard_car" route="N2S" depart="26.888670117680917" departLane="random" departSpeed="10" />
<vehicle id="N2S5" type="standard_car" route="N2S" depart="27.18417363886299" departLane="random" departSpeed="10" />
<vehicle id="N2S6" type="standard_car" route="N2S" depart="31.048097872984425" departLane="random" departSpeed="10" />
<vehicle id="S2N7" type="standard_car" route="S2N" depart="33.074238775268725" departLane="random" departSpeed="10" />
<vehicle id="E2W8" type="standard_car" route="E2W" depart="33.75462941506191" departLane="random" departSpeed="10" />
<vehicle id="S2N9" type="standard_car" route="S2N" depart="39.26196552837348" departLane="random" departSpeed="10" />
<vehicle id="N2S10" type="standard_car" route="N2S" depart="39.662337036049344" departLane="random" departSpeed="10" />
<vehicle id="N2S11" type="standard_car" route="N2S" depart="42.50033862536459" departLane="random" departSpeed="10" />
<vehicle id="E2W12" type="standard_car" route="E2W" depart="42.72592303680724" departLane="random" departSpeed="10" />
<vehicle id="N2W13" type="standard_car" route="N2W" depart="43.632759013763355" departLane="random" departSpeed="10" />
<vehicle id="W2N14" type="standard_car" route="W2N" depart="43.64185434792218" departLane="random" departSpeed="10" />
<vehicle id="N2S15" type="standard_car" route="N2S" depart="43.857784674500515" departLane="random" departSpeed="10" />
<vehicle id="N2E16" type="standard_car" route="N2E" depart="44.232600045964766" departLane="random" departSpeed="10" />
<vehicle id="N2S17" type="standard_car" route="N2S" depart="45.17330893691826" departLane="random" departSpeed="10" />
<vehicle id="E2N18" type="standard_car" route="E2N" depart="46.95428881337603" departLane="random" departSpeed="10" />
<vehicle id="N2S19" type="standard_car" route="N2S" depart="47.37582991158529" departLane="random" departSpeed="10" />
<vehicle id="N2W20" type="standard_car" route="N2W" depart="47.689934242473626" departLane="random" departSpeed="10" />
<vehicle id="N2S21" type="standard_car" route="N2S" depart="48.82924252422041" departLane="random" departSpeed="10" />
<vehicle id="N2S22" type="standard_car" route="N2S" depart="49.629145929200185" departLane="random" departSpeed="10" />
<vehicle id="N2S23" type="standard_car" route="N2S" depart="50.38166014000394" departLane="random" departSpeed="10" />
<vehicle id="N2S24" type="standard_car" route="N2S" depart="51.54936757172317" departLane="random" departSpeed="10" />
<vehicle id="S2W25" type="standard_car" route="S2W" depart="52.419696479231106" departLane="random" departSpeed="10" />
<vehicle id="W2E26" type="standard_car" route="W2E" depart="53.18077068970227" departLane="random" departSpeed="10" />
<vehicle id="S2N27" type="standard_car" route="S2N" depart="54.53671508151277" departLane="random" departSpeed="10" />
<vehicle id="N2S28" type="standard_car" route="N2S" depart="57.6273467776735" departLane="random" departSpeed="10" />
<vehicle id="W2E29" type="standard_car" route="W2E" depart="57.95625493872861" departLane="random" departSpeed="10" />
<vehicle id="W2E30" type="standard_car" route="W2E" depart="60.272928605364804" departLane="random" departSpeed="10" />
<vehicle id="N2S31" type="standard_car" route="N2S" depart="61.257855674449814" departLane="random" departSpeed="10" />
<vehicle id="N2S32" type="standard_car" route="N2S" depart="62.05340770526602" departLane="random" departSpeed="10" />
<vehicle id="S2N33" type="standard_car" route="S2N" depart="63.560484644478045" departLane="random" departSpeed="10" />
<vehicle id="W2N34" type="standard_car" route="W2N" depart="65.06007397158247" departLane="random" departSpeed="10" />
<vehicle id="N2S35" type="standard_car" route="N2S" depart="67.51116186389677" departLane="random" departSpeed="10" />
<vehicle id="N2S36" type="standard_car" route="N2S" depart="68.56790469493934" departLane="random" departSpeed="10" />
<vehicle id="N2S37" type="standard_car" route="N2S" depart="69.12841009408994" departLane="random" departSpeed="10" />
<vehicle id="E2W38" type="standard_car" route="E2W" depart="70.89762801294948" departLane="random" departSpeed="10" />
<vehicle id="S2N39" type="standard_car" route="S2N" depart="71.72552082714172" departLane="random" departSpeed="10" />
<vehicle id="W2N40" type="standard_car" route="W2N" depart="71.81623348807936" departLane="random" departSpeed="10" />
<vehicle id="E2W41" type="standard_car" route="E2W" depart="71.86183632314903" departLane="random" departSpeed="10" />
<vehicle id="N2S42" type="standard_car" route="N2S" depart="72.87738945370008" departLane="random" departSpeed="10" />
<vehicle id="S2N43" type="standard_car" route="S2N" depart="73.74038617283928" departLane="random" departSpeed="10" />
<vehicle id="W2E44" type="standard_car" route="W2E" depart="73.90455003399926" departLane="random" departSpeed="10" />
<vehicle id="W2E45" type="standard_car" route="W2E" depart="74.13179846768905" departLane="random" departSpeed="10" />
<vehicle id="W2E46" type="standard_car" route="W2E" depart="76.024026256092" departLane="random" departSpeed="10" />
<vehicle id="W2E47" type="standard_car" route="W2E" depart="81.8613715540536" departLane="random" departSpeed="10" />
<vehicle id="N2S48" type="standard_car" route="N2S" depart="82.54630611917003" departLane="random" departSpeed="10" />
<vehicle id="S2E49" type="standard_car" route="S2E" depart="84.73678363348633" departLane="random" departSpeed="10" />
<vehicle id="W2S50" type="standard_car" route="W2S" depart="84.7379266661852" departLane="random" departSpeed="10" />
<vehicle id="W2E51" type="standard_car" route="W2E" depart="85.95853880197144" departLane="random" departSpeed="10" />
<vehicle id="W2E52" type="standard_car" route="W2E" depart="86.83915849903472" departLane="random" departSpeed="10" />
<vehicle id="S2N53" type="standard_car" route="S2N" depart="86.94295412134565" departLane="random" departSpeed="10" />
<vehicle id="N2S54" type="standard_car" route="N2S" depart="88.97741033183907" departLane="random" departSpeed="10" />
<vehicle id="S2N55" type="standard_car" route="S2N" depart="91.74704362311387" departLane="random" departSpeed="10" />
<vehicle id="E2S56" type="standard_car" route="E2S" depart="92.50404163438053" departLane="random" departSpeed="10" />
<vehicle id="N2S57" type="standard_car" route="N2S" depart="98.43382186758222" departLane="random" departSpeed="10" />
<vehicle id="W2E58" type="standard_car" route="W2E" depart="98.75550498461757" departLane="random" departSpeed="10" />
<vehicle id="N2W59" type="standard_car" route="N2W" depart="101.6111718417966" departLane="random" departSpeed="10" />
<vehicle id="W2E60" type="standard_car" route="W2E" depart="106.11480136686475" departLane="random" departSpeed="10" />
<vehicle id="N2W61" type="standard_car" route="N2W" depart="108.15689102185814" departLane="random" departSpeed="10" />
<vehicle id="S2N62" type="standard_car" route="S2N" depart="109.34402878273741" departLane="random" departSpeed="10" />
<vehicle id="W2E63" type="standard_car" route="W2E" depart="110.54656216016505" departLane="random" departSpeed="10" />
<vehicle id="W2N64" type="standard_car" route="W2N" depart="112.12884738285005" departLane="random" departSpeed="10" />
<vehicle id="N2S65" type="standard_car" route="N2S" depart="114.06332886559116" departLane="random" departSpeed="10" />
<vehicle id="S2N66" type="standard_car" route="S2N" depart="116.06768366020206" departLane="random" departSpeed="10" />
<vehicle id="W2E67" type="standard_car" route="W2E" depart="116.26037611102137" departLane="random" departSpeed="10" />
<vehicle id="S2N68" type="standard_car" route="S2N" depart="117.2575230193261" departLane="random" departSpeed="10" />
<vehicle id="N2S69" type="standard_car" route="N2S" depart="117.56767546161267" departLane="random" departSpeed="10" />
<vehicle id="S2N70" type="standard_car" route="S2N" depart="120.73210900413393" departLane="random" departSpeed="10" />
<vehicle id="W2N71" type="standard_car" route="W2N" depart="126.23455906615986" departLane="random" departSpeed="10" />
<vehicle id="S2N72" type="standard_car" route="S2N" depart="127.99893256509338" departLane="random" departSpeed="10" />
<vehicle id="W2E73" type="standard_car" route="W2E" depart="128.71906171205626" departLane="random" departSpeed="10" />
<vehicle id="W2E74" type="standard_car" route="W2E" depart="136.1105459348621" departLane="random" departSpeed="10" />
<vehicle id="W2E75" type="standard_car" route="W2E" depart="137.08160685809713" departLane="random" departSpeed="10" />
<vehicle id="W2E76" type="standard_car" route="W2E" depart="139.64325393661446" departLane="random" departSpeed="10" />
<vehicle id="W2E77" type="standard_car" route="W2E" depart="142.6374096309551" departLane="random" departSpeed="10" />
<vehicle id="N2S78" type="standard_car" route="N2S" depart="147.02126347736126" departLane="random" departSpeed="10" />
<vehicle id="W2E79" type="standard_car" route="W2E" depart="147.2414395318629" departLane="random" departSpeed="10" />
<vehicle id="E2W80" type="standard_car" route="E2W" depart="148.43347776475608" departLane="random" departSpeed="10" />
<vehicle id="E2W81" type="standard_car" route="E2W" depart="148.48268832285265" departLane="random" departSpeed="10" />
<vehicle id="S2N82" type="standard_car" route="S2N" depart="154.6280640455742" departLane="random" departSpeed="10" />
<vehicle id="E2N83" type="standard_car" route="E2N" depart="155.47676656042967" departLane="random" departSpeed="10" />
<vehicle id="E2W84" type="standard_car" route="E2W" depart="157.14139335351615" departLane="random" departSpeed="10" />
<vehicle id="S2E85" type="standard_car" route="S2E" depart="165.9359057296049" departLane="random" departSpeed="10" />
<vehicle id="S2N86" type="standard_car" route="S2N" depart="167.77686067128192" departLane="random" departSpeed="10" />
<vehicle id="S2W87" type="standard_car" route="S2W" depart="185.04943714092786" departLane="random" departSpeed="10" />
<vehicle id="W2S88" type="standard_car" route="W2S" depart="192.77533936470672" departLane="random" departSpeed="10" />
<vehicle id="W2E89" type="standard_car" route="W2E" depart="200.0" departLane="random" departSpeed="10" />
</routes>
