<?xml version="1.0" encoding="UTF-8"?>

            <routes xmlns:xsi="http://www.w3.org/2001/XMLSchema-instance">
   
            <vType accel="1.0" decel="4.5" id="standard_car" length="5.0" minGap="2.5" maxSpeed="25" sigma="0.5" />) 
            
            <route id="N2W" edges="-125514711 125514713"/>
            <route id="N2S" edges="-125514711 -125514709"/>
            <route id="N2E" edges="-125514711 -548975769"/>     
            <route id="W2N" edges="-125514713 125514711"/>
            <route id="W2E" edges="-125514713 -548975769"/>
            <route id="W2S" edges="-125514711 -125514709"/>
            <route id="S2W" edges="125514709 125514713"/>
            <route id="S2N" edges="125514709 125514711"/>
            <route id="S2E" edges="-125514711 -548975769"/>
            <route id="E2S" edges="548975769 -125514709"/>
            <route id="E2W" edges="548975769 125514713"/>
            <route id="E2N" edges="548975769 125514711"/>
            
<vehicle id="E2W0" type="standard_car" route="E2W" depart="27.378914183198187" departLane="random" departSpeed="10" />
<vehicle id="S2N1" type="standard_car" route="S2N" depart="37.52462600310068" departLane="random" departSpeed="10" />
<vehicle id="N2W2" type="standard_car" route="N2W" depart="46.85276529074112" departLane="random" departSpeed="10" />
<vehicle id="S2N3" type="standard_car" route="S2N" depart="48.5335178064515" departLane="random" departSpeed="10" />
<vehicle id="W2E4" type="standard_car" route="W2E" depart="55.15528756540979" departLane="random" departSpeed="10" />
<vehicle id="W2S5" type="standard_car" route="W2S" depart="56.70520879848873" departLane="random" departSpeed="10" />
<vehicle id="S2N6" type="standard_car" route="S2N" depart="57.8878947635703" departLane="random" departSpeed="10" />
<vehicle id="S2W7" type="standard_car" route="S2W" depart="67.58918137084324" departLane="random" departSpeed="10" />
<vehicle id="N2S8" type="standard_car" route="N2S" depart="69.61902253173527" departLane="random" departSpeed="10" />
<vehicle id="N2S9" type="standard_car" route="N2S" depart="72.06059606948749" departLane="random" departSpeed="10" />
<vehicle id="W2E10" type="standard_car" route="W2E" depart="75.70953776898182" departLane="random" departSpeed="10" />
<vehicle id="E2W11" type="standard_car" route="E2W" depart="76.16909817112403" departLane="random" departSpeed="10" />
<vehicle id="N2S12" type="standard_car" route="N2S" depart="81.49001414566476" departLane="random" departSpeed="10" />
<vehicle id="S2N13" type="standard_car" route="S2N" depart="81.80615520347428" departLane="random" departSpeed="10" />
<vehicle id="W2E14" type="standard_car" route="W2E" depart="82.3370246442604" departLane="random" departSpeed="10" />
<vehicle id="W2E15" type="standard_car" route="W2E" depart="83.30159914746692" departLane="random" departSpeed="10" />
<vehicle id="N2S16" type="standard_car" route="N2S" depart="83.79178511925647" departLane="random" departSpeed="10" />
<vehicle id="E2W17" type="standard_car" route="E2W" depart="89.36724778022769" departLane="random" departSpeed="10" />
<vehicle id="E2W18" type="standard_car" route="E2W" depart="89.87768805062207" departLane="random" departSpeed="10" />
<vehicle id="N2E19" type="standard_car" route="N2E" depart="92.16829027695475" departLane="random" departSpeed="10" />
<vehicle id="E2W20" type="standard_car" route="E2W" depart="96.49607691741639" departLane="random" departSpeed="10" />
<vehicle id="W2N21" type="standard_car" route="W2N" depart="100.06403446477508" departLane="random" departSpeed="10" />
<vehicle id="N2S22" type="standard_car" route="N2S" depart="101.20554450114345" departLane="random" departSpeed="10" />
<vehicle id="S2N23" type="standard_car" route="S2N" depart="101.80504539562749" departLane="random" departSpeed="10" />
<vehicle id="W2E24" type="standard_car" route="W2E" depart="102.56202230720181" departLane="random" departSpeed="10" />
<vehicle id="E2W25" type="standard_car" route="E2W" depart="103.77771508069824" departLane="random" departSpeed="10" />
<vehicle id="E2W26" type="standard_car" route="E2W" depart="107.00463307130505" departLane="random" departSpeed="10" />
<vehicle id="E2W27" type="standard_car" route="E2W" depart="107.95887573782991" departLane="random" departSpeed="10" />
<vehicle id="E2W28" type="standard_car" route="E2W" depart="121.75729479002622" departLane="random" departSpeed="10" />
<vehicle id="E2W29" type="standard_car" route="E2W" depart="125.633690477823" departLane="random" departSpeed="10" />
<vehicle id="W2E30" type="standard_car" route="W2E" depart="126.01512268792739" departLane="random" departSpeed="10" />
<vehicle id="S2N31" type="standard_car" route="S2N" depart="127.27445731483284" departLane="random" departSpeed="10" />
<vehicle id="E2W32" type="standard_car" route="E2W" depart="128.45758641318506" departLane="random" departSpeed="10" />
<vehicle id="S2N33" type="standard_car" route="S2N" depart="129.08233880134387" departLane="random" departSpeed="10" />
<vehicle id="S2N34" type="standard_car" route="S2N" depart="138.55309978014364" departLane="random" departSpeed="10" />
<vehicle id="E2W35" type="standard_car" route="E2W" depart="140.65370257053019" departLane="random" departSpeed="10" />
<vehicle id="E2W36" type="standard_car" route="E2W" depart="146.4385743173517" departLane="random" departSpeed="10" />
<vehicle id="E2W37" type="standard_car" route="E2W" depart="149.1206037617218" departLane="random" departSpeed="10" />
<vehicle id="N2S38" type="standard_car" route="N2S" depart="153.4191709217737" departLane="random" departSpeed="10" />
<vehicle id="S2N39" type="standard_car" route="S2N" depart="153.7838302129091" departLane="random" departSpeed="10" />
<vehicle id="N2W40" type="standard_car" route="N2W" depart="170.08965674470446" departLane="random" departSpeed="10" />
<vehicle id="W2E41" type="standard_car" route="W2E" depart="174.45625915266174" departLane="random" departSpeed="10" />
<vehicle id="S2N42" type="standard_car" route="S2N" depart="179.9213216042213" departLane="random" departSpeed="10" />
<vehicle id="E2W43" type="standard_car" route="E2W" depart="184.68806785192356" departLane="random" departSpeed="10" />
<vehicle id="S2N44" type="standard_car" route="S2N" depart="185.8306687447225" departLane="random" departSpeed="10" />
<vehicle id="E2W45" type="standard_car" route="E2W" depart="187.1745653597097" departLane="random" departSpeed="10" />
<vehicle id="S2N46" type="standard_car" route="S2N" depart="191.89188300770837" departLane="random" departSpeed="10" />
<vehicle id="S2N47" type="standard_car" route="S2N" depart="197.08813554665926" departLane="random" departSpeed="10" />
<vehicle id="E2W48" type="standard_car" route="E2W" depart="201.30488945966226" departLane="random" departSpeed="10" />
<vehicle id="S2W49" type="standard_car" route="S2W" depart="207.070928359479" departLane="random" departSpeed="10" />
<vehicle id="W2E50" type="standard_car" route="W2E" depart="209.93721979455054" departLane="random" departSpeed="10" />
<vehicle id="W2E51" type="standard_car" route="W2E" depart="210.1950927742928" departLane="random" departSpeed="10" />
<vehicle id="N2W52" type="standard_car" route="N2W" depart="212.75627820710898" departLane="random" departSpeed="10" />
<vehicle id="N2S53" type="standard_car" route="N2S" depart="215.44868604194568" departLane="random" departSpeed="10" />
<vehicle id="N2W54" type="standard_car" route="N2W" depart="215.60130589323828" departLane="random" departSpeed="10" />
<vehicle id="N2S55" type="standard_car" route="N2S" depart="218.23871150348867" departLane="random" departSpeed="10" />
<vehicle id="E2W56" type="standard_car" route="E2W" depart="224.51264920496524" departLane="random" departSpeed="10" />
<vehicle id="W2E57" type="standard_car" route="W2E" depart="226.77201592468563" departLane="random" departSpeed="10" />
<vehicle id="W2E58" type="standard_car" route="W2E" depart="227.15954273777862" departLane="random" departSpeed="10" />
<vehicle id="E2N59" type="standard_car" route="E2N" depart="228.59741513571078" departLane="random" departSpeed="10" />
<vehicle id="W2E60" type="standard_car" route="W2E" depart="229.5395263578783" departLane="random" departSpeed="10" />
<vehicle id="N2E61" type="standard_car" route="N2E" depart="229.6404256112535" departLane="random" departSpeed="10" />
<vehicle id="N2E62" type="standard_car" route="N2E" depart="233.5339215042859" departLane="random" departSpeed="10" />
<vehicle id="W2E63" type="standard_car" route="W2E" depart="241.85601841173744" departLane="random" departSpeed="10" />
<vehicle id="S2N64" type="standard_car" route="S2N" depart="248.1938655646744" departLane="random" departSpeed="10" />
<vehicle id="S2N65" type="standard_car" route="S2N" depart="253.82472626694747" departLane="random" departSpeed="10" />
<vehicle id="S2N66" type="standard_car" route="S2N" depart="255.23149114776712" departLane="random" departSpeed="10" />
<vehicle id="W2S67" type="standard_car" route="W2S" depart="264.4992044937966" departLane="random" departSpeed="10" />
<vehicle id="N2S68" type="standard_car" route="N2S" depart="264.5815317894957" departLane="random" departSpeed="10" />
<vehicle id="W2E69" type="standard_car" route="W2E" depart="273.4945034411962" departLane="random" departSpeed="10" />
<vehicle id="E2W70" type="standard_car" route="E2W" depart="282.87990346011037" departLane="random" departSpeed="10" />
<vehicle id="N2S71" type="standard_car" route="N2S" depart="293.15557657400655" departLane="random" departSpeed="10" />
<vehicle id="W2E72" type="standard_car" route="W2E" depart="338.20653542184965" departLane="random" departSpeed="10" />
<vehicle id="N2S73" type="standard_car" route="N2S" depart="339.2244434643534" departLane="random" departSpeed="10" />
<vehicle id="E2W74" type="standard_car" route="E2W" depart="400.0" departLane="random" departSpeed="10" />
</routes>
