<?xml version="1.0" encoding="UTF-8"?>

            <routes xmlns:xsi="http://www.w3.org/2001/XMLSchema-instance">
                  
            <vType accel="1.0" decel="4.5" id="standard_car" length="5.0" minGap="2.5" maxSpeed="25" sigma="0.5" />) 
            
            <route id="N2W" edges="-125514711 125514713"/>
            <route id="N2S" edges="-125514711 -125514709"/>
            <route id="N2E" edges="-125514711 -548975769"/>     
            <route id="W2N" edges="-125514713 125514711"/>
            <route id="W2E" edges="-125514713 -548975769"/>
            <route id="W2S" edges="-125514711 -125514709"/>
            <route id="S2W" edges="125514709 125514713"/>
            <route id="S2N" edges="125514709 125514711"/>
            <route id="S2E" edges="-125514711 -548975769"/>
            <route id="E2S" edges="548975769 -125514709"/>
            <route id="E2W" edges="548975769 125514713"/>
            <route id="E2N" edges="548975769 125514711"/>
            
<vehicle id="W2E0" type="standard_car" route="W2E" depart="5.223570953403697" departLane="random" departSpeed="10" />
<vehicle id="S2N1" type="standard_car" route="S2N" depart="13.869941310836984" departLane="random" departSpeed="10" />
<vehicle id="E2W2" type="standard_car" route="E2W" depart="16.50325251108236" departLane="random" departSpeed="10" />
<vehicle id="N2S3" type="standard_car" route="N2S" depart="17.882642560608446" departLane="random" departSpeed="10" />
<vehicle id="W2E4" type="standard_car" route="W2E" depart="18.811406535259003" departLane="random" departSpeed="10" />
<vehicle id="S2N5" type="standard_car" route="S2N" depart="19.956251066414804" departLane="random" departSpeed="10" />
<vehicle id="N2S6" type="standard_car" route="N2S" depart="20.66232387774681" departLane="random" departSpeed="10" />
<vehicle id="W2E7" type="standard_car" route="W2E" depart="22.303001119376155" departLane="random" departSpeed="10" />
<vehicle id="W2S8" type="standard_car" route="W2S" depart="24.019885359347178" departLane="random" departSpeed="10" />
<vehicle id="E2W9" type="standard_car" route="E2W" depart="24.29206104138343" departLane="random" departSpeed="10" />
<vehicle id="N2E10" type="standard_car" route="N2E" depart="24.570043538356295" departLane="random" departSpeed="10" />
<vehicle id="E2N11" type="standard_car" route="E2N" depart="24.71459400074679" departLane="random" departSpeed="10" />
<vehicle id="N2S12" type="standard_car" route="N2S" depart="25.568902643438037" departLane="random" departSpeed="10" />
<vehicle id="S2E13" type="standard_car" route="S2E" depart="26.52767760274543" departLane="random" departSpeed="10" />
<vehicle id="W2E14" type="standard_car" route="W2E" depart="27.269435673108696" departLane="random" departSpeed="10" />
<vehicle id="S2N15" type="standard_car" route="S2N" depart="30.31678782635831" departLane="random" departSpeed="10" />
<vehicle id="N2S16" type="standard_car" route="N2S" depart="31.536989910800834" departLane="random" departSpeed="10" />
<vehicle id="S2N17" type="standard_car" route="S2N" depart="31.89279949684447" departLane="random" departSpeed="10" />
<vehicle id="E2W18" type="standard_car" route="E2W" depart="32.5690999747463" departLane="random" departSpeed="10" />
<vehicle id="W2E19" type="standard_car" route="W2E" depart="33.89189303100891" departLane="random" departSpeed="10" />
<vehicle id="S2N20" type="standard_car" route="S2N" depart="34.46237153582425" departLane="random" departSpeed="10" />
<vehicle id="W2E21" type="standard_car" route="W2E" depart="37.181884620956744" departLane="random" departSpeed="10" />
<vehicle id="N2S22" type="standard_car" route="N2S" depart="38.8647048437928" departLane="random" departSpeed="10" />
<vehicle id="E2W23" type="standard_car" route="E2W" depart="41.56015719025232" departLane="random" departSpeed="10" />
<vehicle id="N2S24" type="standard_car" route="N2S" depart="41.92814569379943" departLane="random" departSpeed="10" />
<vehicle id="W2E25" type="standard_car" route="W2E" depart="44.0989709486333" departLane="random" departSpeed="10" />
<vehicle id="E2W26" type="standard_car" route="E2W" depart="44.28720133699144" departLane="random" departSpeed="10" />
<vehicle id="N2W27" type="standard_car" route="N2W" depart="44.51960135422135" departLane="random" departSpeed="10" />
<vehicle id="S2N28" type="standard_car" route="S2N" depart="45.137860173728654" departLane="random" departSpeed="10" />
<vehicle id="S2N29" type="standard_car" route="S2N" depart="45.19164560400626" departLane="random" departSpeed="10" />
<vehicle id="W2E30" type="standard_car" route="W2E" depart="45.69744479025321" departLane="random" departSpeed="10" />
<vehicle id="W2E31" type="standard_car" route="W2E" depart="46.51149384491538" departLane="random" departSpeed="10" />
<vehicle id="E2W32" type="standard_car" route="E2W" depart="46.71295026587817" departLane="random" departSpeed="10" />
<vehicle id="W2N33" type="standard_car" route="W2N" depart="50.14267766365579" departLane="random" departSpeed="10" />
<vehicle id="S2N34" type="standard_car" route="S2N" depart="50.175148961084204" departLane="random" departSpeed="10" />
<vehicle id="N2W35" type="standard_car" route="N2W" depart="50.25347836805422" departLane="random" departSpeed="10" />
<vehicle id="E2W36" type="standard_car" route="E2W" depart="51.415339554810046" departLane="random" departSpeed="10" />
<vehicle id="S2N37" type="standard_car" route="S2N" depart="51.54303594134222" departLane="random" departSpeed="10" />
<vehicle id="N2S38" type="standard_car" route="N2S" depart="53.61786748610321" departLane="random" departSpeed="10" />
<vehicle id="N2E39" type="standard_car" route="N2E" depart="55.928137080745955" departLane="random" departSpeed="10" />
<vehicle id="N2S40" type="standard_car" route="N2S" depart="56.70064137119366" departLane="random" departSpeed="10" />
<vehicle id="E2S41" type="standard_car" route="E2S" depart="57.550407348837766" departLane="random" departSpeed="10" />
<vehicle id="W2E42" type="standard_car" route="W2E" depart="58.411732560076736" departLane="random" departSpeed="10" />
<vehicle id="E2W43" type="standard_car" route="E2W" depart="59.01348251842416" departLane="random" departSpeed="10" />
<vehicle id="N2W44" type="standard_car" route="N2W" depart="59.21308919665873" departLane="random" departSpeed="10" />
<vehicle id="S2N45" type="standard_car" route="S2N" depart="59.41229672699417" departLane="random" departSpeed="10" />
<vehicle id="W2E46" type="standard_car" route="W2E" depart="60.512076337281904" departLane="random" departSpeed="10" />
<vehicle id="W2E47" type="standard_car" route="W2E" depart="60.63806724682175" departLane="random" departSpeed="10" />
<vehicle id="S2N48" type="standard_car" route="S2N" depart="62.10288080132072" departLane="random" departSpeed="10" />
<vehicle id="N2W49" type="standard_car" route="N2W" depart="64.1147974262895" departLane="random" departSpeed="10" />
<vehicle id="W2E50" type="standard_car" route="W2E" depart="66.59777093978336" departLane="random" departSpeed="10" />
<vehicle id="S2N51" type="standard_car" route="S2N" depart="68.12726412597019" departLane="random" departSpeed="10" />
<vehicle id="N2S52" type="standard_car" route="N2S" depart="68.14237538380615" departLane="random" departSpeed="10" />
<vehicle id="E2S53" type="standard_car" route="E2S" depart="69.17703044100043" departLane="random" departSpeed="10" />
<vehicle id="E2W54" type="standard_car" route="E2W" depart="71.41479588219453" departLane="random" departSpeed="10" />
<vehicle id="N2S55" type="standard_car" route="N2S" depart="71.58754615933307" departLane="random" departSpeed="10" />
<vehicle id="S2N56" type="standard_car" route="S2N" depart="72.46534557821893" departLane="random" departSpeed="10" />
<vehicle id="S2W57" type="standard_car" route="S2W" depart="76.29626976430575" departLane="random" departSpeed="10" />
<vehicle id="S2N58" type="standard_car" route="S2N" depart="76.32663986889499" departLane="random" departSpeed="10" />
<vehicle id="S2W59" type="standard_car" route="S2W" depart="77.2752926090068" departLane="random" departSpeed="10" />
<vehicle id="S2N60" type="standard_car" route="S2N" depart="78.59518577740097" departLane="random" departSpeed="10" />
<vehicle id="N2S61" type="standard_car" route="N2S" depart="78.60365489248191" departLane="random" departSpeed="10" />
<vehicle id="N2S62" type="standard_car" route="N2S" depart="80.12746526180152" departLane="random" departSpeed="10" />
<vehicle id="S2N63" type="standard_car" route="S2N" depart="80.77276515516031" departLane="random" departSpeed="10" />
<vehicle id="E2W64" type="standard_car" route="E2W" depart="85.26023162296555" departLane="random" departSpeed="10" />
<vehicle id="N2S65" type="standard_car" route="N2S" depart="86.52105193639908" departLane="random" departSpeed="10" />
<vehicle id="E2W66" type="standard_car" route="E2W" depart="88.07527026490159" departLane="random" departSpeed="10" />
<vehicle id="S2N67" type="standard_car" route="S2N" depart="93.38256562182137" departLane="random" departSpeed="10" />
<vehicle id="E2W68" type="standard_car" route="E2W" depart="95.35922303252326" departLane="random" departSpeed="10" />
<vehicle id="W2S69" type="standard_car" route="W2S" depart="96.09151973708222" departLane="random" departSpeed="10" />
<vehicle id="E2W70" type="standard_car" route="E2W" depart="96.42764890249684" departLane="random" departSpeed="10" />
<vehicle id="N2S71" type="standard_car" route="N2S" depart="98.15959534016692" departLane="random" departSpeed="10" />
<vehicle id="E2W72" type="standard_car" route="E2W" depart="99.64557509425278" departLane="random" departSpeed="10" />
<vehicle id="E2S73" type="standard_car" route="E2S" depart="101.91511676447868" departLane="random" departSpeed="10" />
<vehicle id="N2E74" type="standard_car" route="N2E" depart="107.12445859744959" departLane="random" departSpeed="10" />
<vehicle id="S2N75" type="standard_car" route="S2N" depart="107.63560136902201" departLane="random" departSpeed="10" />
<vehicle id="E2W76" type="standard_car" route="E2W" depart="111.78264860612737" departLane="random" departSpeed="10" />
<vehicle id="W2E77" type="standard_car" route="W2E" depart="112.35200779081711" departLane="random" departSpeed="10" />
<vehicle id="W2E78" type="standard_car" route="W2E" depart="113.2808142105943" departLane="random" departSpeed="10" />
<vehicle id="E2S79" type="standard_car" route="E2S" depart="116.59243672059671" departLane="random" departSpeed="10" />
<vehicle id="S2W80" type="standard_car" route="S2W" depart="118.15475287862078" departLane="random" departSpeed="10" />
<vehicle id="N2E81" type="standard_car" route="N2E" depart="119.20379108891646" departLane="random" departSpeed="10" />
<vehicle id="E2W82" type="standard_car" route="E2W" depart="119.6137097711646" departLane="random" departSpeed="10" />
<vehicle id="E2W83" type="standard_car" route="E2W" depart="124.75412407904693" departLane="random" departSpeed="10" />
<vehicle id="N2E84" type="standard_car" route="N2E" depart="131.45113706612256" departLane="random" departSpeed="10" />
<vehicle id="N2W85" type="standard_car" route="N2W" depart="133.55938724525927" departLane="random" departSpeed="10" />
<vehicle id="W2E86" type="standard_car" route="W2E" depart="134.47538581121296" departLane="random" departSpeed="10" />
<vehicle id="N2S87" type="standard_car" route="N2S" depart="136.88273660690973" departLane="random" departSpeed="10" />
<vehicle id="S2N88" type="standard_car" route="S2N" depart="141.11099117419766" departLane="random" departSpeed="10" />
<vehicle id="E2W89" type="standard_car" route="E2W" depart="150.04251067386772" departLane="random" departSpeed="10" />
<vehicle id="E2W90" type="standard_car" route="E2W" depart="156.9110128949566" departLane="random" departSpeed="10" />
<vehicle id="N2W91" type="standard_car" route="N2W" depart="168.76709677382874" departLane="random" departSpeed="10" />
<vehicle id="E2W92" type="standard_car" route="E2W" depart="200.0" departLane="random" departSpeed="10" />
</routes>
