<?xml version="1.0" encoding="UTF-8"?>

            <routes xmlns:xsi="http://www.w3.org/2001/XMLSchema-instance">
   
            <vType accel="1.0" decel="4.5" id="standard_car" length="5.0" minGap="2.5" maxSpeed="25" sigma="0.5" />) 
            
            <route id="N2W" edges="-125514711 125514713"/>
            <route id="N2S" edges="-125514711 -125514709"/>
            <route id="N2E" edges="-125514711 -548975769"/>     
            <route id="W2N" edges="-125514713 125514711"/>
            <route id="W2E" edges="-125514713 -548975769"/>
            <route id="W2S" edges="-125514711 -125514709"/>
            <route id="S2W" edges="125514709 125514713"/>
            <route id="S2N" edges="125514709 125514711"/>
            <route id="S2E" edges="-125514711 -548975769"/>
            <route id="E2S" edges="548975769 -125514709"/>
            <route id="E2W" edges="548975769 125514713"/>
            <route id="E2N" edges="548975769 125514711"/>
            
<<<<<<< HEAD
<vehicle id="W2E0" type="standard_car" route="W2E" depart="10.252459126945288" departLane="random" departSpeed="10" />
<vehicle id="N2E1" type="standard_car" route="N2E" depart="10.488890619620841" departLane="random" departSpeed="10" />
<vehicle id="N2E2" type="standard_car" route="N2E" depart="18.623022246669052" departLane="random" departSpeed="10" />
<vehicle id="W2S3" type="standard_car" route="W2S" depart="18.733223352516497" departLane="random" departSpeed="10" />
<vehicle id="W2N4" type="standard_car" route="W2N" depart="20.473534179994278" departLane="random" departSpeed="10" />
<vehicle id="S2W5" type="standard_car" route="S2W" depart="21.152362461003406" departLane="random" departSpeed="10" />
<vehicle id="W2N6" type="standard_car" route="W2N" depart="23.94842835656466" departLane="random" departSpeed="10" />
<vehicle id="N2W7" type="standard_car" route="N2W" depart="24.365363901916222" departLane="random" departSpeed="10" />
<vehicle id="W2E8" type="standard_car" route="W2E" depart="25.477176228790725" departLane="random" departSpeed="10" />
<vehicle id="S2W9" type="standard_car" route="S2W" depart="27.517052614127415" departLane="random" departSpeed="10" />
<vehicle id="S2W10" type="standard_car" route="S2W" depart="28.57558950984067" departLane="random" departSpeed="10" />
<vehicle id="W2N11" type="standard_car" route="W2N" depart="29.51063003665243" departLane="random" departSpeed="10" />
<vehicle id="W2S12" type="standard_car" route="W2S" depart="31.46870002912402" departLane="random" departSpeed="10" />
<vehicle id="N2E13" type="standard_car" route="N2E" depart="31.988943947654086" departLane="random" departSpeed="10" />
<vehicle id="W2S14" type="standard_car" route="W2S" depart="33.32679936751158" departLane="random" departSpeed="10" />
<vehicle id="W2S15" type="standard_car" route="W2S" depart="34.112124114156465" departLane="random" departSpeed="10" />
<vehicle id="N2S16" type="standard_car" route="N2S" depart="35.28578250646897" departLane="random" departSpeed="10" />
<vehicle id="W2E17" type="standard_car" route="W2E" depart="38.18758366953961" departLane="random" departSpeed="10" />
<vehicle id="S2W18" type="standard_car" route="S2W" depart="39.84413789679051" departLane="random" departSpeed="10" />
<vehicle id="S2E19" type="standard_car" route="S2E" depart="40.01572188904964" departLane="random" departSpeed="10" />
<vehicle id="W2S20" type="standard_car" route="W2S" depart="41.517151930373345" departLane="random" departSpeed="10" />
<vehicle id="S2E21" type="standard_car" route="S2E" depart="44.55417945380647" departLane="random" departSpeed="10" />
<vehicle id="N2E22" type="standard_car" route="N2E" depart="44.863318132886334" departLane="random" departSpeed="10" />
<vehicle id="W2N23" type="standard_car" route="W2N" depart="45.06437971258759" departLane="random" departSpeed="10" />
<vehicle id="W2N24" type="standard_car" route="W2N" depart="45.21392909515006" departLane="random" departSpeed="10" />
<vehicle id="N2E25" type="standard_car" route="N2E" depart="45.851234186032414" departLane="random" departSpeed="10" />
<vehicle id="E2S26" type="standard_car" route="E2S" depart="46.82361671383768" departLane="random" departSpeed="10" />
<vehicle id="W2E27" type="standard_car" route="W2E" depart="47.940429868910996" departLane="random" departSpeed="10" />
<vehicle id="E2S28" type="standard_car" route="E2S" depart="48.408053837507666" departLane="random" departSpeed="10" />
<vehicle id="E2N29" type="standard_car" route="E2N" depart="49.91924403088689" departLane="random" departSpeed="10" />
<vehicle id="W2N30" type="standard_car" route="W2N" depart="51.85502780960394" departLane="random" departSpeed="10" />
<vehicle id="S2W31" type="standard_car" route="S2W" depart="52.29901383665396" departLane="random" departSpeed="10" />
<vehicle id="S2W32" type="standard_car" route="S2W" depart="53.99527729441151" departLane="random" departSpeed="10" />
<vehicle id="S2E33" type="standard_car" route="S2E" depart="54.86332312254884" departLane="random" departSpeed="10" />
<vehicle id="N2S34" type="standard_car" route="N2S" depart="56.46268686277351" departLane="random" departSpeed="10" />
<vehicle id="E2S35" type="standard_car" route="E2S" depart="56.96822890623932" departLane="random" departSpeed="10" />
<vehicle id="N2E36" type="standard_car" route="N2E" depart="57.2529715179993" departLane="random" departSpeed="10" />
<vehicle id="S2N37" type="standard_car" route="S2N" depart="58.41974098930412" departLane="random" departSpeed="10" />
<vehicle id="N2E38" type="standard_car" route="N2E" depart="60.9547551812051" departLane="random" departSpeed="10" />
<vehicle id="E2N39" type="standard_car" route="E2N" depart="63.73803986486065" departLane="random" departSpeed="10" />
<vehicle id="S2E40" type="standard_car" route="S2E" depart="65.14084357974939" departLane="random" departSpeed="10" />
<vehicle id="S2W41" type="standard_car" route="S2W" depart="65.37866218442373" departLane="random" departSpeed="10" />
<vehicle id="N2E42" type="standard_car" route="N2E" depart="66.00568408867449" departLane="random" departSpeed="10" />
<vehicle id="S2W43" type="standard_car" route="S2W" depart="66.03579595352132" departLane="random" departSpeed="10" />
<vehicle id="S2E44" type="standard_car" route="S2E" depart="66.48491120633396" departLane="random" departSpeed="10" />
<vehicle id="W2S45" type="standard_car" route="W2S" depart="67.15347934301981" departLane="random" departSpeed="10" />
<vehicle id="E2W46" type="standard_car" route="E2W" depart="67.24572436366601" departLane="random" departSpeed="10" />
<vehicle id="W2S47" type="standard_car" route="W2S" depart="68.2587745388264" departLane="random" departSpeed="10" />
<vehicle id="S2N48" type="standard_car" route="S2N" depart="69.33202055769289" departLane="random" departSpeed="10" />
<vehicle id="S2E49" type="standard_car" route="S2E" depart="69.85514435912407" departLane="random" departSpeed="10" />
<vehicle id="N2W50" type="standard_car" route="N2W" depart="70.11879731454117" departLane="random" departSpeed="10" />
<vehicle id="N2S51" type="standard_car" route="N2S" depart="70.26554371392021" departLane="random" departSpeed="10" />
<vehicle id="W2N52" type="standard_car" route="W2N" depart="70.79779540415545" departLane="random" departSpeed="10" />
<vehicle id="E2S53" type="standard_car" route="E2S" depart="71.2307446049272" departLane="random" departSpeed="10" />
<vehicle id="W2N54" type="standard_car" route="W2N" depart="71.6345171777993" departLane="random" departSpeed="10" />
<vehicle id="W2E55" type="standard_car" route="W2E" depart="71.75489810792081" departLane="random" departSpeed="10" />
<vehicle id="W2N56" type="standard_car" route="W2N" depart="72.95414296345164" departLane="random" departSpeed="10" />
<vehicle id="W2S57" type="standard_car" route="W2S" depart="73.29549233601524" departLane="random" departSpeed="10" />
<vehicle id="E2N58" type="standard_car" route="E2N" depart="73.41631748458703" departLane="random" departSpeed="10" />
<vehicle id="W2E59" type="standard_car" route="W2E" depart="75.83201549989398" departLane="random" departSpeed="10" />
<vehicle id="E2N60" type="standard_car" route="E2N" depart="75.8874070397449" departLane="random" departSpeed="10" />
<vehicle id="S2W61" type="standard_car" route="S2W" depart="76.15118234681492" departLane="random" departSpeed="10" />
<vehicle id="N2E62" type="standard_car" route="N2E" depart="76.16099574995278" departLane="random" departSpeed="10" />
<vehicle id="S2W63" type="standard_car" route="S2W" depart="76.36935645708596" departLane="random" departSpeed="10" />
<vehicle id="E2W64" type="standard_car" route="E2W" depart="76.7493573697179" departLane="random" departSpeed="10" />
<vehicle id="E2S65" type="standard_car" route="E2S" depart="78.79211164850743" departLane="random" departSpeed="10" />
<vehicle id="S2E66" type="standard_car" route="S2E" depart="81.20342331445501" departLane="random" departSpeed="10" />
<vehicle id="N2W67" type="standard_car" route="N2W" depart="81.51712615945087" departLane="random" departSpeed="10" />
<vehicle id="W2E68" type="standard_car" route="W2E" depart="84.10241047632152" departLane="random" departSpeed="10" />
<vehicle id="E2S69" type="standard_car" route="E2S" depart="84.49620844650501" departLane="random" departSpeed="10" />
<vehicle id="N2W70" type="standard_car" route="N2W" depart="84.89439464708066" departLane="random" departSpeed="10" />
<vehicle id="S2W71" type="standard_car" route="S2W" depart="84.97927144593176" departLane="random" departSpeed="10" />
<vehicle id="W2S72" type="standard_car" route="W2S" depart="85.18010778736478" departLane="random" departSpeed="10" />
<vehicle id="W2N73" type="standard_car" route="W2N" depart="85.18759090011888" departLane="random" departSpeed="10" />
<vehicle id="N2W74" type="standard_car" route="N2W" depart="85.86782977691496" departLane="random" departSpeed="10" />
<vehicle id="S2W75" type="standard_car" route="S2W" depart="86.26340278942469" departLane="random" departSpeed="10" />
<vehicle id="E2S76" type="standard_car" route="E2S" depart="86.2697258680974" departLane="random" departSpeed="10" />
<vehicle id="N2E77" type="standard_car" route="N2E" depart="87.26772928774564" departLane="random" departSpeed="10" />
<vehicle id="E2S78" type="standard_car" route="E2S" depart="88.82365590353871" departLane="random" departSpeed="10" />
<vehicle id="E2W79" type="standard_car" route="E2W" depart="89.88910368280668" departLane="random" departSpeed="10" />
<vehicle id="E2W80" type="standard_car" route="E2W" depart="89.90104445962842" departLane="random" departSpeed="10" />
<vehicle id="W2S81" type="standard_car" route="W2S" depart="90.42870250130026" departLane="random" departSpeed="10" />
<vehicle id="W2N82" type="standard_car" route="W2N" depart="91.76050881966626" departLane="random" departSpeed="10" />
<vehicle id="W2E83" type="standard_car" route="W2E" depart="92.57941236189113" departLane="random" departSpeed="10" />
<vehicle id="W2S84" type="standard_car" route="W2S" depart="92.61933023192262" departLane="random" departSpeed="10" />
<vehicle id="W2N85" type="standard_car" route="W2N" depart="92.73434907808554" departLane="random" departSpeed="10" />
<vehicle id="S2N86" type="standard_car" route="S2N" depart="93.27479527337314" departLane="random" departSpeed="10" />
<vehicle id="E2W87" type="standard_car" route="E2W" depart="93.44286116892907" departLane="random" departSpeed="10" />
<vehicle id="N2S88" type="standard_car" route="N2S" depart="93.52208255801503" departLane="random" departSpeed="10" />
<vehicle id="W2E89" type="standard_car" route="W2E" depart="94.20797782790335" departLane="random" departSpeed="10" />
<vehicle id="W2N90" type="standard_car" route="W2N" depart="94.56681956653408" departLane="random" departSpeed="10" />
<vehicle id="S2E91" type="standard_car" route="S2E" depart="95.13695888921413" departLane="random" departSpeed="10" />
<vehicle id="S2N92" type="standard_car" route="S2N" depart="95.1835393626936" departLane="random" departSpeed="10" />
<vehicle id="E2S93" type="standard_car" route="E2S" depart="96.20994418236799" departLane="random" departSpeed="10" />
<vehicle id="E2S94" type="standard_car" route="E2S" depart="96.22420469541417" departLane="random" departSpeed="10" />
<vehicle id="W2S95" type="standard_car" route="W2S" depart="96.58977616386397" departLane="random" departSpeed="10" />
<vehicle id="E2N96" type="standard_car" route="E2N" depart="96.6995886047279" departLane="random" departSpeed="10" />
<vehicle id="N2S97" type="standard_car" route="N2S" depart="97.26556153614503" departLane="random" departSpeed="10" />
<vehicle id="W2N98" type="standard_car" route="W2N" depart="99.3905096891526" departLane="random" departSpeed="10" />
<vehicle id="E2N99" type="standard_car" route="E2N" depart="100.5043659926876" departLane="random" departSpeed="10" />
<vehicle id="E2S100" type="standard_car" route="E2S" depart="100.98769935859823" departLane="random" departSpeed="10" />
<vehicle id="W2N101" type="standard_car" route="W2N" depart="101.34239396033261" departLane="random" departSpeed="10" />
<vehicle id="W2E102" type="standard_car" route="W2E" depart="101.62509355500904" departLane="random" departSpeed="10" />
<vehicle id="W2S103" type="standard_car" route="W2S" depart="103.1956198988563" departLane="random" departSpeed="10" />
<vehicle id="S2W104" type="standard_car" route="S2W" depart="103.61166442979219" departLane="random" departSpeed="10" />
<vehicle id="E2N105" type="standard_car" route="E2N" depart="103.88217895001218" departLane="random" departSpeed="10" />
<vehicle id="W2N106" type="standard_car" route="W2N" depart="104.12914934187727" departLane="random" departSpeed="10" />
<vehicle id="W2S107" type="standard_car" route="W2S" depart="104.30687088719684" departLane="random" departSpeed="10" />
<vehicle id="S2W108" type="standard_car" route="S2W" depart="104.39843085897014" departLane="random" departSpeed="10" />
<vehicle id="S2W109" type="standard_car" route="S2W" depart="105.30874552518809" departLane="random" departSpeed="10" />
<vehicle id="N2E110" type="standard_car" route="N2E" depart="105.81530212807864" departLane="random" departSpeed="10" />
<vehicle id="N2W111" type="standard_car" route="N2W" depart="105.87276264186664" departLane="random" departSpeed="10" />
<vehicle id="E2W112" type="standard_car" route="E2W" depart="106.3710939024024" departLane="random" departSpeed="10" />
<vehicle id="N2E113" type="standard_car" route="N2E" depart="106.65602050181947" departLane="random" departSpeed="10" />
<vehicle id="N2S114" type="standard_car" route="N2S" depart="107.94193217956534" departLane="random" departSpeed="10" />
<vehicle id="E2N115" type="standard_car" route="E2N" depart="108.23640164576864" departLane="random" departSpeed="10" />
<vehicle id="S2N116" type="standard_car" route="S2N" depart="108.45663533898119" departLane="random" departSpeed="10" />
<vehicle id="W2N117" type="standard_car" route="W2N" depart="109.27429203901943" departLane="random" departSpeed="10" />
<vehicle id="N2W118" type="standard_car" route="N2W" depart="109.27710992414116" departLane="random" departSpeed="10" />
<vehicle id="N2E119" type="standard_car" route="N2E" depart="110.61830090670256" departLane="random" departSpeed="10" />
<vehicle id="S2N120" type="standard_car" route="S2N" depart="111.5638495416909" departLane="random" departSpeed="10" />
<vehicle id="N2W121" type="standard_car" route="N2W" depart="112.3480638215492" departLane="random" departSpeed="10" />
<vehicle id="N2S122" type="standard_car" route="N2S" depart="112.39334665250715" departLane="random" departSpeed="10" />
<vehicle id="S2N123" type="standard_car" route="S2N" depart="112.8729786421906" departLane="random" departSpeed="10" />
<vehicle id="N2E124" type="standard_car" route="N2E" depart="114.2234730008968" departLane="random" departSpeed="10" />
<vehicle id="E2W125" type="standard_car" route="E2W" depart="114.62628287356995" departLane="random" departSpeed="10" />
<vehicle id="W2E126" type="standard_car" route="W2E" depart="114.89478583338827" departLane="random" departSpeed="10" />
<vehicle id="E2N127" type="standard_car" route="E2N" depart="115.22909417739716" departLane="random" departSpeed="10" />
<vehicle id="E2N128" type="standard_car" route="E2N" depart="115.39092749283894" departLane="random" departSpeed="10" />
<vehicle id="W2E129" type="standard_car" route="W2E" depart="115.41634392244494" departLane="random" departSpeed="10" />
<vehicle id="N2E130" type="standard_car" route="N2E" depart="115.60922576329165" departLane="random" departSpeed="10" />
<vehicle id="S2W131" type="standard_car" route="S2W" depart="115.68451127025472" departLane="random" departSpeed="10" />
<vehicle id="N2S132" type="standard_car" route="N2S" depart="116.10212925790866" departLane="random" departSpeed="10" />
<vehicle id="N2E133" type="standard_car" route="N2E" depart="116.83170681681784" departLane="random" departSpeed="10" />
<vehicle id="N2W134" type="standard_car" route="N2W" depart="118.31729032295686" departLane="random" departSpeed="10" />
<vehicle id="E2N135" type="standard_car" route="E2N" depart="118.55531205098981" departLane="random" departSpeed="10" />
<vehicle id="E2S136" type="standard_car" route="E2S" depart="118.756297136036" departLane="random" departSpeed="10" />
<vehicle id="E2N137" type="standard_car" route="E2N" depart="120.7812507454244" departLane="random" departSpeed="10" />
<vehicle id="E2S138" type="standard_car" route="E2S" depart="121.79435370754004" departLane="random" departSpeed="10" />
<vehicle id="E2N139" type="standard_car" route="E2N" depart="122.13820276441096" departLane="random" departSpeed="10" />
<vehicle id="S2E140" type="standard_car" route="S2E" depart="122.16173762812339" departLane="random" departSpeed="10" />
<vehicle id="S2E141" type="standard_car" route="S2E" depart="123.11850199519088" departLane="random" departSpeed="10" />
<vehicle id="W2N142" type="standard_car" route="W2N" depart="123.19496195766169" departLane="random" departSpeed="10" />
<vehicle id="N2W143" type="standard_car" route="N2W" depart="123.37451039257363" departLane="random" departSpeed="10" />
<vehicle id="W2N144" type="standard_car" route="W2N" depart="123.75523216685183" departLane="random" departSpeed="10" />
<vehicle id="E2S145" type="standard_car" route="E2S" depart="124.0146618225172" departLane="random" departSpeed="10" />
<vehicle id="N2E146" type="standard_car" route="N2E" depart="124.8216416546094" departLane="random" departSpeed="10" />
<vehicle id="W2N147" type="standard_car" route="W2N" depart="125.46269292096851" departLane="random" departSpeed="10" />
<vehicle id="W2S148" type="standard_car" route="W2S" depart="125.4969382965373" departLane="random" departSpeed="10" />
<vehicle id="E2S149" type="standard_car" route="E2S" depart="125.50428170529752" departLane="random" departSpeed="10" />
<vehicle id="E2S150" type="standard_car" route="E2S" depart="126.07266847922749" departLane="random" departSpeed="10" />
<vehicle id="E2W151" type="standard_car" route="E2W" depart="127.14644286155344" departLane="random" departSpeed="10" />
<vehicle id="W2N152" type="standard_car" route="W2N" depart="127.50900372098303" departLane="random" departSpeed="10" />
<vehicle id="W2N153" type="standard_car" route="W2N" depart="127.66589511565988" departLane="random" departSpeed="10" />
<vehicle id="S2N154" type="standard_car" route="S2N" depart="127.97641771721507" departLane="random" departSpeed="10" />
<vehicle id="S2E155" type="standard_car" route="S2E" depart="127.99443145336333" departLane="random" departSpeed="10" />
<vehicle id="S2E156" type="standard_car" route="S2E" depart="128.02146697352745" departLane="random" departSpeed="10" />
<vehicle id="S2E157" type="standard_car" route="S2E" depart="128.31667506778493" departLane="random" departSpeed="10" />
<vehicle id="E2N158" type="standard_car" route="E2N" depart="128.35897822869953" departLane="random" departSpeed="10" />
<vehicle id="N2W159" type="standard_car" route="N2W" depart="128.85892951861405" departLane="random" departSpeed="10" />
<vehicle id="E2S160" type="standard_car" route="E2S" depart="128.8765494720388" departLane="random" departSpeed="10" />
<vehicle id="N2W161" type="standard_car" route="N2W" depart="129.39880930377043" departLane="random" departSpeed="10" />
<vehicle id="E2S162" type="standard_car" route="E2S" depart="129.7863737764147" departLane="random" departSpeed="10" />
<vehicle id="S2W163" type="standard_car" route="S2W" depart="129.89676574934558" departLane="random" departSpeed="10" />
<vehicle id="E2S164" type="standard_car" route="E2S" depart="130.0251468949494" departLane="random" departSpeed="10" />
<vehicle id="W2S165" type="standard_car" route="W2S" depart="130.42384250374218" departLane="random" departSpeed="10" />
<vehicle id="E2N166" type="standard_car" route="E2N" depart="130.5793208367454" departLane="random" departSpeed="10" />
<vehicle id="E2W167" type="standard_car" route="E2W" depart="130.95906700621717" departLane="random" departSpeed="10" />
<vehicle id="N2E168" type="standard_car" route="N2E" depart="131.8836191691149" departLane="random" departSpeed="10" />
<vehicle id="E2N169" type="standard_car" route="E2N" depart="133.99510705324064" departLane="random" departSpeed="10" />
<vehicle id="E2N170" type="standard_car" route="E2N" depart="134.19553045595825" departLane="random" departSpeed="10" />
<vehicle id="S2N171" type="standard_car" route="S2N" depart="135.16400370901468" departLane="random" departSpeed="10" />
<vehicle id="N2E172" type="standard_car" route="N2E" depart="135.68471455981637" departLane="random" departSpeed="10" />
<vehicle id="W2N173" type="standard_car" route="W2N" depart="136.02320576896668" departLane="random" departSpeed="10" />
<vehicle id="S2E174" type="standard_car" route="S2E" depart="136.06312174778967" departLane="random" departSpeed="10" />
<vehicle id="S2W175" type="standard_car" route="S2W" depart="136.23080980969138" departLane="random" departSpeed="10" />
<vehicle id="N2S176" type="standard_car" route="N2S" depart="136.57041063623373" departLane="random" departSpeed="10" />
<vehicle id="W2E177" type="standard_car" route="W2E" depart="136.93751808672772" departLane="random" departSpeed="10" />
<vehicle id="S2E178" type="standard_car" route="S2E" depart="137.0745770316953" departLane="random" departSpeed="10" />
<vehicle id="N2S179" type="standard_car" route="N2S" depart="137.1107186498855" departLane="random" departSpeed="10" />
<vehicle id="N2W180" type="standard_car" route="N2W" depart="138.09581546152708" departLane="random" departSpeed="10" />
<vehicle id="W2S181" type="standard_car" route="W2S" depart="138.14261928352627" departLane="random" departSpeed="10" />
<vehicle id="W2E182" type="standard_car" route="W2E" depart="138.86204654988285" departLane="random" departSpeed="10" />
<vehicle id="E2N183" type="standard_car" route="E2N" depart="139.0954819519134" departLane="random" departSpeed="10" />
<vehicle id="S2E184" type="standard_car" route="S2E" depart="139.76569645472617" departLane="random" departSpeed="10" />
<vehicle id="N2S185" type="standard_car" route="N2S" depart="140.31109640396403" departLane="random" departSpeed="10" />
<vehicle id="E2S186" type="standard_car" route="E2S" depart="140.45435082125644" departLane="random" departSpeed="10" />
<vehicle id="W2N187" type="standard_car" route="W2N" depart="140.5754442625809" departLane="random" departSpeed="10" />
<vehicle id="N2S188" type="standard_car" route="N2S" depart="140.61594217364146" departLane="random" departSpeed="10" />
<vehicle id="E2N189" type="standard_car" route="E2N" depart="141.93415700576654" departLane="random" departSpeed="10" />
<vehicle id="S2E190" type="standard_car" route="S2E" depart="141.9749854626041" departLane="random" departSpeed="10" />
<vehicle id="E2S191" type="standard_car" route="E2S" depart="142.54530021673844" departLane="random" departSpeed="10" />
<vehicle id="S2W192" type="standard_car" route="S2W" depart="142.61044688585662" departLane="random" departSpeed="10" />
<vehicle id="N2W193" type="standard_car" route="N2W" depart="142.65311959283338" departLane="random" departSpeed="10" />
<vehicle id="W2S194" type="standard_car" route="W2S" depart="143.15910026671926" departLane="random" departSpeed="10" />
<vehicle id="E2N195" type="standard_car" route="E2N" depart="143.742693497181" departLane="random" departSpeed="10" />
<vehicle id="S2W196" type="standard_car" route="S2W" depart="144.02807202294784" departLane="random" departSpeed="10" />
<vehicle id="N2S197" type="standard_car" route="N2S" depart="144.31435130072882" departLane="random" departSpeed="10" />
<vehicle id="N2W198" type="standard_car" route="N2W" depart="144.54980167278157" departLane="random" departSpeed="10" />
<vehicle id="W2N199" type="standard_car" route="W2N" depart="144.9545713450505" departLane="random" departSpeed="10" />
<vehicle id="S2E200" type="standard_car" route="S2E" depart="145.68080237158995" departLane="random" departSpeed="10" />
<vehicle id="W2E201" type="standard_car" route="W2E" depart="145.74669236554868" departLane="random" departSpeed="10" />
<vehicle id="N2W202" type="standard_car" route="N2W" depart="146.9164390260303" departLane="random" departSpeed="10" />
<vehicle id="N2S203" type="standard_car" route="N2S" depart="147.2533103753457" departLane="random" departSpeed="10" />
<vehicle id="W2S204" type="standard_car" route="W2S" depart="147.72440188252372" departLane="random" departSpeed="10" />
<vehicle id="S2N205" type="standard_car" route="S2N" depart="148.41810190088307" departLane="random" departSpeed="10" />
<vehicle id="W2S206" type="standard_car" route="W2S" depart="148.4897359867708" departLane="random" departSpeed="10" />
<vehicle id="N2E207" type="standard_car" route="N2E" depart="148.80761949502602" departLane="random" departSpeed="10" />
<vehicle id="E2S208" type="standard_car" route="E2S" depart="150.51281350896755" departLane="random" departSpeed="10" />
<vehicle id="E2W209" type="standard_car" route="E2W" depart="150.5880590572218" departLane="random" departSpeed="10" />
<vehicle id="E2N210" type="standard_car" route="E2N" depart="151.43623636276587" departLane="random" departSpeed="10" />
<vehicle id="S2E211" type="standard_car" route="S2E" depart="151.82311324474034" departLane="random" departSpeed="10" />
<vehicle id="E2N212" type="standard_car" route="E2N" depart="152.2283438935381" departLane="random" departSpeed="10" />
<vehicle id="E2N213" type="standard_car" route="E2N" depart="152.24212399242248" departLane="random" departSpeed="10" />
<vehicle id="E2N214" type="standard_car" route="E2N" depart="153.94798644273462" departLane="random" departSpeed="10" />
<vehicle id="S2E215" type="standard_car" route="S2E" depart="154.47060267323192" departLane="random" departSpeed="10" />
<vehicle id="S2E216" type="standard_car" route="S2E" depart="154.73771275460356" departLane="random" departSpeed="10" />
<vehicle id="S2W217" type="standard_car" route="S2W" depart="154.88898720836988" departLane="random" departSpeed="10" />
<vehicle id="W2S218" type="standard_car" route="W2S" depart="154.9364873828931" departLane="random" departSpeed="10" />
<vehicle id="E2W219" type="standard_car" route="E2W" depart="155.28575114295268" departLane="random" departSpeed="10" />
<vehicle id="E2N220" type="standard_car" route="E2N" depart="156.8736539037758" departLane="random" departSpeed="10" />
<vehicle id="E2W221" type="standard_car" route="E2W" depart="157.31184710704156" departLane="random" departSpeed="10" />
<vehicle id="W2S222" type="standard_car" route="W2S" depart="157.50141449544304" departLane="random" departSpeed="10" />
<vehicle id="S2E223" type="standard_car" route="S2E" depart="157.7183019228205" departLane="random" departSpeed="10" />
<vehicle id="S2W224" type="standard_car" route="S2W" depart="157.79979382409957" departLane="random" departSpeed="10" />
<vehicle id="E2N225" type="standard_car" route="E2N" depart="157.89709645936136" departLane="random" departSpeed="10" />
<vehicle id="W2S226" type="standard_car" route="W2S" depart="158.07274961958913" departLane="random" departSpeed="10" />
<vehicle id="N2S227" type="standard_car" route="N2S" depart="158.8617010286599" departLane="random" departSpeed="10" />
<vehicle id="W2S228" type="standard_car" route="W2S" depart="159.09447978042448" departLane="random" departSpeed="10" />
<vehicle id="W2S229" type="standard_car" route="W2S" depart="159.35161342862025" departLane="random" departSpeed="10" />
<vehicle id="W2N230" type="standard_car" route="W2N" depart="159.50542900413862" departLane="random" departSpeed="10" />
<vehicle id="S2W231" type="standard_car" route="S2W" depart="160.26829486230613" departLane="random" departSpeed="10" />
<vehicle id="S2W232" type="standard_car" route="S2W" depart="160.49444120852556" departLane="random" departSpeed="10" />
<vehicle id="E2S233" type="standard_car" route="E2S" depart="161.27312023841583" departLane="random" departSpeed="10" />
<vehicle id="W2S234" type="standard_car" route="W2S" depart="161.46208422010525" departLane="random" departSpeed="10" />
<vehicle id="N2S235" type="standard_car" route="N2S" depart="161.54641490107932" departLane="random" departSpeed="10" />
<vehicle id="N2E236" type="standard_car" route="N2E" depart="161.61040717010738" departLane="random" departSpeed="10" />
<vehicle id="W2E237" type="standard_car" route="W2E" depart="161.6737769252389" departLane="random" departSpeed="10" />
<vehicle id="S2W238" type="standard_car" route="S2W" depart="161.7635306097819" departLane="random" departSpeed="10" />
<vehicle id="E2N239" type="standard_car" route="E2N" depart="162.03787925167688" departLane="random" departSpeed="10" />
<vehicle id="N2W240" type="standard_car" route="N2W" depart="163.75454196135613" departLane="random" departSpeed="10" />