<?xml version="1.0" encoding="UTF-8"?>

            <routes xmlns:xsi="http://www.w3.org/2001/XMLSchema-instance">
                  
            <vType accel="1.0" decel="4.5" id="standard_car" length="5.0" minGap="2.5" maxSpeed="25" sigma="0.5" />) 
            
            <route id="N2W" edges="-125514711 125514713"/>
            <route id="N2S" edges="-125514711 -125514709"/>
            <route id="N2E" edges="-125514711 -548975769"/>     
            <route id="W2N" edges="-125514713 125514711"/>
            <route id="W2E" edges="-125514713 -548975769"/>
            <route id="W2S" edges="-125514711 -125514709"/>
            <route id="S2W" edges="125514709 125514713"/>
            <route id="S2N" edges="125514709 125514711"/>
            <route id="S2E" edges="-125514711 -548975769"/>
            <route id="E2S" edges="548975769 -125514709"/>
            <route id="E2W" edges="548975769 125514713"/>
            <route id="E2N" edges="548975769 125514711"/>
            
<vehicle id="S2N0" type="standard_car" route="S2N" depart="2.7858282324719146" departLane="random" departSpeed="10" />
<vehicle id="S2N1" type="standard_car" route="S2N" depart="5.44553632048093" departLane="random" departSpeed="10" />
<vehicle id="E2W2" type="standard_car" route="E2W" depart="5.734472188569685" departLane="random" departSpeed="10" />
<vehicle id="W2S3" type="standard_car" route="W2S" depart="6.5174590959848455" departLane="random" departSpeed="10" />
<vehicle id="N2S4" type="standard_car" route="N2S" depart="8.595886244194986" departLane="random" departSpeed="10" />
<vehicle id="N2S5" type="standard_car" route="N2S" depart="10.372821033779669" departLane="random" departSpeed="10" />
<vehicle id="W2N6" type="standard_car" route="W2N" depart="14.151883860840597" departLane="random" departSpeed="10" />
<vehicle id="W2N7" type="standard_car" route="W2N" depart="14.731466867521434" departLane="random" departSpeed="10" />
<vehicle id="N2S8" type="standard_car" route="N2S" depart="15.647578989964837" departLane="random" departSpeed="10" />
<vehicle id="N2S9" type="standard_car" route="N2S" depart="16.95597870226959" departLane="random" departSpeed="10" />
<vehicle id="S2N10" type="standard_car" route="S2N" depart="17.50555826141688" departLane="random" departSpeed="10" />
<vehicle id="E2W11" type="standard_car" route="E2W" depart="18.633475222186384" departLane="random" departSpeed="10" />
<vehicle id="E2W12" type="standard_car" route="E2W" depart="20.433084880477196" departLane="random" departSpeed="10" />
<vehicle id="S2N13" type="standard_car" route="S2N" depart="21.879431877345933" departLane="random" departSpeed="10" />
<vehicle id="E2N14" type="standard_car" route="E2N" depart="25.011544328641104" departLane="random" departSpeed="10" />
<vehicle id="W2S15" type="standard_car" route="W2S" depart="25.734092219485095" departLane="random" departSpeed="10" />
<vehicle id="W2S16" type="standard_car" route="W2S" depart="25.969542266756672" departLane="random" departSpeed="10" />
<vehicle id="S2N17" type="standard_car" route="S2N" depart="28.826628473987366" departLane="random" departSpeed="10" />
<vehicle id="W2E18" type="standard_car" route="W2E" depart="29.288768987847558" departLane="random" departSpeed="10" />
<vehicle id="S2N19" type="standard_car" route="S2N" depart="29.38121326653184" departLane="random" departSpeed="10" />
<vehicle id="S2N20" type="standard_car" route="S2N" depart="29.595562188921964" departLane="random" departSpeed="10" />
<vehicle id="W2E21" type="standard_car" route="W2E" depart="29.646116146725404" departLane="random" departSpeed="10" />
<vehicle id="S2N22" type="standard_car" route="S2N" depart="31.21112486933682" departLane="random" departSpeed="10" />
<vehicle id="E2W23" type="standard_car" route="E2W" depart="32.59904915358561" departLane="random" departSpeed="10" />
<vehicle id="S2N24" type="standard_car" route="S2N" depart="33.119200457981215" departLane="random" departSpeed="10" />
<vehicle id="S2N25" type="standard_car" route="S2N" depart="34.05201006603162" departLane="random" departSpeed="10" />
<vehicle id="S2N26" type="standard_car" route="S2N" depart="34.4536388389272" departLane="random" departSpeed="10" />
<vehicle id="N2S27" type="standard_car" route="N2S" depart="35.1386297246833" departLane="random" departSpeed="10" />
<vehicle id="N2W28" type="standard_car" route="N2W" depart="35.359359515666696" departLane="random" departSpeed="10" />
<vehicle id="W2S29" type="standard_car" route="W2S" depart="35.548722477861" departLane="random" departSpeed="10" />
<vehicle id="W2E30" type="standard_car" route="W2E" depart="38.13710897443983" departLane="random" departSpeed="10" />
<vehicle id="S2E31" type="standard_car" route="S2E" depart="38.7275239134065" departLane="random" departSpeed="10" />
<vehicle id="E2W32" type="standard_car" route="E2W" depart="38.98273359787425" departLane="random" departSpeed="10" />
<vehicle id="E2W33" type="standard_car" route="E2W" depart="39.09258539657765" departLane="random" departSpeed="10" />
<vehicle id="N2W34" type="standard_car" route="N2W" depart="39.34637804594771" departLane="random" departSpeed="10" />
<vehicle id="W2E35" type="standard_car" route="W2E" depart="39.47007649555375" departLane="random" departSpeed="10" />
<vehicle id="S2W36" type="standard_car" route="S2W" depart="39.68766579808798" departLane="random" departSpeed="10" />
<vehicle id="N2S37" type="standard_car" route="N2S" depart="40.11423817173795" departLane="random" departSpeed="10" />
<vehicle id="S2N38" type="standard_car" route="S2N" depart="40.352193292867355" departLane="random" departSpeed="10" />
<vehicle id="S2N39" type="standard_car" route="S2N" depart="41.13651805107325" departLane="random" departSpeed="10" />
<vehicle id="E2W40" type="standard_car" route="E2W" depart="41.65029757826393" departLane="random" departSpeed="10" />
<vehicle id="N2S41" type="standard_car" route="N2S" depart="42.95680455930366" departLane="random" departSpeed="10" />
<vehicle id="N2S42" type="standard_car" route="N2S" depart="43.02125211682535" departLane="random" departSpeed="10" />
<vehicle id="N2S43" type="standard_car" route="N2S" depart="43.10956236261036" departLane="random" departSpeed="10" />
<vehicle id="N2E44" type="standard_car" route="N2E" depart="43.26132954323603" departLane="random" departSpeed="10" />
<vehicle id="E2S45" type="standard_car" route="E2S" depart="44.01900060922866" departLane="random" departSpeed="10" />
<vehicle id="S2N46" type="standard_car" route="S2N" depart="44.28520216730887" departLane="random" departSpeed="10" />
<vehicle id="W2E47" type="standard_car" route="W2E" depart="44.74811010871945" departLane="random" departSpeed="10" />
<vehicle id="N2S48" type="standard_car" route="N2S" depart="45.130386669893404" departLane="random" departSpeed="10" />
<vehicle id="E2W49" type="standard_car" route="E2W" depart="45.66364494203181" departLane="random" departSpeed="10" />
<vehicle id="E2W50" type="standard_car" route="E2W" depart="46.468346332231896" departLane="random" departSpeed="10" />
<vehicle id="S2N51" type="standard_car" route="S2N" depart="47.1663396029305" departLane="random" departSpeed="10" />
<vehicle id="W2E52" type="standard_car" route="W2E" depart="47.299997773432416" departLane="random" departSpeed="10" />
<vehicle id="E2S53" type="standard_car" route="E2S" depart="47.39315848738737" departLane="random" departSpeed="10" />
<vehicle id="E2W54" type="standard_car" route="E2W" depart="48.69295461758949" departLane="random" departSpeed="10" />
<vehicle id="N2S55" type="standard_car" route="N2S" depart="49.19305655837962" departLane="random" departSpeed="10" />
<vehicle id="W2E56" type="standard_car" route="W2E" depart="49.21054648146789" departLane="random" departSpeed="10" />
<vehicle id="N2S57" type="standard_car" route="N2S" depart="49.348334514071404" departLane="random" departSpeed="10" />
<vehicle id="E2W58" type="standard_car" route="E2W" depart="50.06112303899782" departLane="random" departSpeed="10" />
<vehicle id="N2S59" type="standard_car" route="N2S" depart="50.81520596723942" departLane="random" departSpeed="10" />
<vehicle id="W2E60" type="standard_car" route="W2E" depart="51.52656083476773" departLane="random" departSpeed="10" />
<vehicle id="N2S61" type="standard_car" route="N2S" depart="52.04341012213294" departLane="random" departSpeed="10" />
<vehicle id="W2E62" type="standard_car" route="W2E" depart="52.30777161585104" departLane="random" departSpeed="10" />
<vehicle id="W2E63" type="standard_car" route="W2E" depart="52.498649675197825" departLane="random" departSpeed="10" />
<vehicle id="N2S64" type="standard_car" route="N2S" depart="52.603841950945515" departLane="random" departSpeed="10" />
<vehicle id="E2W65" type="standard_car" route="E2W" depart="53.27069070979189" departLane="random" departSpeed="10" />
<vehicle id="W2E66" type="standard_car" route="W2E" depart="53.65580873142619" departLane="random" departSpeed="10" />
<vehicle id="E2N67" type="standard_car" route="E2N" depart="53.79343085617195" departLane="random" departSpeed="10" />
<vehicle id="N2S68" type="standard_car" route="N2S" depart="54.051192613269464" departLane="random" departSpeed="10" />
<vehicle id="S2N69" type="standard_car" route="S2N" depart="54.39219753446296" departLane="random" departSpeed="10" />
<vehicle id="E2N70" type="standard_car" route="E2N" depart="55.61016845131308" departLane="random" departSpeed="10" />
<vehicle id="S2N71" type="standard_car" route="S2N" depart="56.399831672326016" departLane="random" departSpeed="10" />
<vehicle id="S2N72" type="standard_car" route="S2N" depart="56.47510714652427" departLane="random" departSpeed="10" />
<vehicle id="W2S73" type="standard_car" route="W2S" depart="56.7408644383622" departLane="random" departSpeed="10" />
<vehicle id="E2W74" type="standard_car" route="E2W" depart="56.92013316536381" departLane="random" departSpeed="10" />
<vehicle id="S2N75" type="standard_car" route="S2N" depart="56.98906437950681" departLane="random" departSpeed="10" />
<vehicle id="S2N76" type="standard_car" route="S2N" depart="57.936510043119796" departLane="random" departSpeed="10" />
<vehicle id="E2N77" type="standard_car" route="E2N" depart="58.31545897542001" departLane="random" departSpeed="10" />
<vehicle id="S2N78" type="standard_car" route="S2N" depart="58.45164590907379" departLane="random" departSpeed="10" />
<vehicle id="S2N79" type="standard_car" route="S2N" depart="59.2307654105888" departLane="random" departSpeed="10" />
<vehicle id="N2S80" type="standard_car" route="N2S" depart="59.68495629926538" departLane="random" departSpeed="10" />
<vehicle id="N2S81" type="standard_car" route="N2S" depart="61.08802699690307" departLane="random" departSpeed="10" />
<vehicle id="W2E82" type="standard_car" route="W2E" depart="61.1861241899604" departLane="random" departSpeed="10" />
<vehicle id="E2W83" type="standard_car" route="E2W" depart="61.1926557163013" departLane="random" departSpeed="10" />
<vehicle id="S2N84" type="standard_car" route="S2N" depart="61.98124877971822" departLane="random" departSpeed="10" />
<vehicle id="W2E85" type="standard_car" route="W2E" depart="62.212585097423165" departLane="random" departSpeed="10" />
<vehicle id="S2W86" type="standard_car" route="S2W" depart="62.271487157607254" departLane="random" departSpeed="10" />
<vehicle id="S2N87" type="standard_car" route="S2N" depart="62.62965989131143" departLane="random" departSpeed="10" />
<vehicle id="E2W88" type="standard_car" route="E2W" depart="63.329089495182934" departLane="random" departSpeed="10" />
<vehicle id="N2S89" type="standard_car" route="N2S" depart="63.75345701214865" departLane="random" departSpeed="10" />
<vehicle id="S2E90" type="standard_car" route="S2E" depart="64.27111252707176" departLane="random" departSpeed="10" />
<vehicle id="W2N91" type="standard_car" route="W2N" depart="64.86774549586251" departLane="random" departSpeed="10" />
<vehicle id="E2W92" type="standard_car" route="E2W" depart="64.93931217198053" departLane="random" departSpeed="10" />
<vehicle id="N2S93" type="standard_car" route="N2S" depart="65.00453729222646" departLane="random" departSpeed="10" />
<vehicle id="E2W94" type="standard_car" route="E2W" depart="66.02982825320957" departLane="random" departSpeed="10" />
<vehicle id="W2E95" type="standard_car" route="W2E" depart="66.4553703195215" departLane="random" departSpeed="10" />
<vehicle id="N2S96" type="standard_car" route="N2S" depart="66.66226279099038" departLane="random" departSpeed="10" />
<vehicle id="S2W97" type="standard_car" route="S2W" depart="67.16166383451166" departLane="random" departSpeed="10" />
<vehicle id="S2W98" type="standard_car" route="S2W" depart="68.92579469884734" departLane="random" departSpeed="10" />
<vehicle id="S2N99" type="standard_car" route="S2N" depart="69.85186088671121" departLane="random" departSpeed="10" />
<vehicle id="E2W100" type="standard_car" route="E2W" depart="70.39230304391701" departLane="random" departSpeed="10" />
<vehicle id="S2W101" type="standard_car" route="S2W" depart="70.50878527484589" departLane="random" departSpeed="10" />
<vehicle id="N2E102" type="standard_car" route="N2E" depart="70.74833928877007" departLane="random" departSpeed="10" />
<vehicle id="W2E103" type="standard_car" route="W2E" depart="71.05251495890158" departLane="random" departSpeed="10" />
<vehicle id="W2E104" type="standard_car" route="W2E" depart="71.38315509179567" departLane="random" departSpeed="10" />
<vehicle id="E2W105" type="standard_car" route="E2W" depart="72.08201040651282" departLane="random" departSpeed="10" />
<vehicle id="W2E106" type="standard_car" route="W2E" depart="72.19791827028985" departLane="random" departSpeed="10" />
<vehicle id="W2E107" type="standard_car" route="W2E" depart="72.27888971818224" departLane="random" departSpeed="10" />
<vehicle id="W2E108" type="standard_car" route="W2E" depart="72.39381222619777" departLane="random" departSpeed="10" />
<vehicle id="S2N109" type="standard_car" route="S2N" depart="74.17860463315856" departLane="random" departSpeed="10" />
<vehicle id="S2N110" type="standard_car" route="S2N" depart="74.48633712685273" departLane="random" departSpeed="10" />
<vehicle id="N2S111" type="standard_car" route="N2S" depart="74.8369687062178" departLane="random" departSpeed="10" />
<vehicle id="E2W112" type="standard_car" route="E2W" depart="75.2361977214173" departLane="random" departSpeed="10" />
<vehicle id="W2E113" type="standard_car" route="W2E" depart="75.75794900625593" departLane="random" departSpeed="10" />
<vehicle id="N2S114" type="standard_car" route="N2S" depart="77.02078348704623" departLane="random" departSpeed="10" />
<vehicle id="W2E115" type="standard_car" route="W2E" depart="77.69618904594151" departLane="random" departSpeed="10" />
<vehicle id="E2W116" type="standard_car" route="E2W" depart="78.86405153168106" departLane="random" departSpeed="10" />
<vehicle id="N2S117" type="standard_car" route="N2S" depart="79.71728607755364" departLane="random" departSpeed="10" />
<vehicle id="W2E118" type="standard_car" route="W2E" depart="80.15014665983719" departLane="random" departSpeed="10" />
<vehicle id="N2S119" type="standard_car" route="N2S" depart="82.27899276973388" departLane="random" departSpeed="10" />
<vehicle id="N2S120" type="standard_car" route="N2S" depart="82.41040363527506" departLane="random" departSpeed="10" />
<vehicle id="W2E121" type="standard_car" route="W2E" depart="82.55095049647564" departLane="random" departSpeed="10" />
<vehicle id="S2N122" type="standard_car" route="S2N" depart="82.56185795073668" departLane="random" departSpeed="10" />
<vehicle id="E2W123" type="standard_car" route="E2W" depart="82.62038729607205" departLane="random" departSpeed="10" />
<vehicle id="S2E124" type="standard_car" route="S2E" depart="84.39848927105186" departLane="random" departSpeed="10" />
<vehicle id="E2W125" type="standard_car" route="E2W" depart="84.52161054306131" departLane="random" departSpeed="10" />
<vehicle id="N2S126" type="standard_car" route="N2S" depart="85.45929408730716" departLane="random" departSpeed="10" />
<vehicle id="E2W127" type="standard_car" route="E2W" depart="86.687664066275" departLane="random" departSpeed="10" />
<vehicle id="N2E128" type="standard_car" route="N2E" depart="87.90617593823183" departLane="random" departSpeed="10" />
<vehicle id="W2E129" type="standard_car" route="W2E" depart="88.03283682608193" departLane="random" departSpeed="10" />
<vehicle id="S2N130" type="standard_car" route="S2N" depart="88.16570285214962" departLane="random" departSpeed="10" />
<vehicle id="W2S131" type="standard_car" route="W2S" depart="89.3865323076848" departLane="random" departSpeed="10" />
<vehicle id="S2E132" type="standard_car" route="S2E" depart="89.50200673423649" departLane="random" departSpeed="10" />
<vehicle id="S2E133" type="standard_car" route="S2E" depart="89.63068657197451" departLane="random" departSpeed="10" />
<vehicle id="E2W134" type="standard_car" route="E2W" depart="90.4098508245028" departLane="random" departSpeed="10" />
<vehicle id="W2E135" type="standard_car" route="W2E" depart="90.54070890800084" departLane="random" departSpeed="10" />
<vehicle id="N2S136" type="standard_car" route="N2S" depart="91.14733511923512" departLane="random" departSpeed="10" />
<vehicle id="E2W137" type="standard_car" route="E2W" depart="91.22143446823654" departLane="random" departSpeed="10" />
<vehicle id="W2E138" type="standard_car" route="W2E" depart="92.00123214488475" departLane="random" departSpeed="10" />
<vehicle id="E2W139" type="standard_car" route="E2W" depart="93.5658233655187" departLane="random" departSpeed="10" />
<vehicle id="E2W140" type="standard_car" route="E2W" depart="93.57563659803479" departLane="random" departSpeed="10" />
<vehicle id="S2N141" type="standard_car" route="S2N" depart="95.05389922660818" departLane="random" departSpeed="10" />
<vehicle id="S2N142" type="standard_car" route="S2N" depart="95.12798665400393" departLane="random" departSpeed="10" />
<vehicle id="N2W143" type="standard_car" route="N2W" depart="95.18796229028499" departLane="random" departSpeed="10" />
<vehicle id="S2W144" type="standard_car" route="S2W" depart="95.5350006268738" departLane="random" departSpeed="10" />
<vehicle id="S2E145" type="standard_car" route="S2E" depart="95.81439893674441" departLane="random" departSpeed="10" />
<vehicle id="W2E146" type="standard_car" route="W2E" depart="96.97683107967265" departLane="random" departSpeed="10" />
<vehicle id="N2S147" type="standard_car" route="N2S" depart="97.34414607572937" departLane="random" departSpeed="10" />
<vehicle id="S2N148" type="standard_car" route="S2N" depart="97.52082991197588" departLane="random" departSpeed="10" />
<vehicle id="S2E149" type="standard_car" route="S2E" depart="97.53415757728334" departLane="random" departSpeed="10" />
<vehicle id="N2S150" type="standard_car" route="N2S" depart="98.87483801232892" departLane="random" departSpeed="10" />
<vehicle id="N2W151" type="standard_car" route="N2W" depart="99.39504684358259" departLane="random" departSpeed="10" />
<vehicle id="E2N152" type="standard_car" route="E2N" depart="100.15247157727283" departLane="random" departSpeed="10" />
<vehicle id="S2N153" type="standard_car" route="S2N" depart="100.33767589097134" departLane="random" departSpeed="10" />
<vehicle id="S2N154" type="standard_car" route="S2N" depart="101.57809348258759" departLane="random" departSpeed="10" />
<vehicle id="N2S155" type="standard_car" route="N2S" depart="102.64880153909692" departLane="random" departSpeed="10" />
<vehicle id="N2S156" type="standard_car" route="N2S" depart="102.90578608041676" departLane="random" departSpeed="10" />
<vehicle id="N2W157" type="standard_car" route="N2W" depart="103.02027183612523" departLane="random" departSpeed="10" />
<vehicle id="S2W158" type="standard_car" route="S2W" depart="103.47350150583468" departLane="random" departSpeed="10" />
<vehicle id="W2E159" type="standard_car" route="W2E" depart="103.7661934848802" departLane="random" departSpeed="10" />
<vehicle id="N2S160" type="standard_car" route="N2S" depart="104.31527994538932" departLane="random" departSpeed="10" />
<vehicle id="E2S161" type="standard_car" route="E2S" depart="105.4701753817638" departLane="random" departSpeed="10" />
<vehicle id="S2N162" type="standard_car" route="S2N" depart="106.2611593129416" departLane="random" departSpeed="10" />
<vehicle id="W2S163" type="standard_car" route="W2S" depart="106.33660449595652" departLane="random" departSpeed="10" />
<vehicle id="N2S164" type="standard_car" route="N2S" depart="106.46859424023877" departLane="random" departSpeed="10" />
<vehicle id="S2N165" type="standard_car" route="S2N" depart="108.30157579929973" departLane="random" departSpeed="10" />
<vehicle id="W2E166" type="standard_car" route="W2E" depart="108.48669432819304" departLane="random" departSpeed="10" />
<vehicle id="N2S167" type="standard_car" route="N2S" depart="110.30184922989224" departLane="random" departSpeed="10" />
<vehicle id="E2W168" type="standard_car" route="E2W" depart="110.31798429098049" departLane="random" departSpeed="10" />
<vehicle id="S2N169" type="standard_car" route="S2N" depart="110.97488380099905" departLane="random" departSpeed="10" />
<vehicle id="E2W170" type="standard_car" route="E2W" depart="112.43412333321707" departLane="random" departSpeed="10" />
<vehicle id="S2N171" type="standard_car" route="S2N" depart="112.56915093496403" departLane="random" departSpeed="10" />
<vehicle id="W2E172" type="standard_car" route="W2E" depart="112.93631237255961" departLane="random" departSpeed="10" />
<vehicle id="W2E173" type="standard_car" route="W2E" depart="112.98374283974373" departLane="random" departSpeed="10" />
<vehicle id="W2E174" type="standard_car" route="W2E" depart="113.18841759217383" departLane="random" departSpeed="10" />
<vehicle id="N2S175" type="standard_car" route="N2S" depart="114.22126850733454" departLane="random" departSpeed="10" />
<vehicle id="N2S176" type="standard_car" route="N2S" depart="114.47479814072237" departLane="random" departSpeed="10" />
<vehicle id="S2E177" type="standard_car" route="S2E" depart="115.73920318343428" departLane="random" departSpeed="10" />
<vehicle id="E2S178" type="standard_car" route="E2S" depart="116.36284825827508" departLane="random" departSpeed="10" />
<vehicle id="N2S179" type="standard_car" route="N2S" depart="116.81937257860189" departLane="random" departSpeed="10" />
<vehicle id="E2N180" type="standard_car" route="E2N" depart="117.09350043197458" departLane="random" departSpeed="10" />
<vehicle id="N2S181" type="standard_car" route="N2S" depart="117.50904026401128" departLane="random" departSpeed="10" />
<vehicle id="N2S182" type="standard_car" route="N2S" depart="118.06482267468057" departLane="random" departSpeed="10" />
<vehicle id="N2S183" type="standard_car" route="N2S" depart="118.36504656767615" departLane="random" departSpeed="10" />
<vehicle id="W2E184" type="standard_car" route="W2E" depart="118.57742472794281" departLane="random" departSpeed="10" />
<vehicle id="E2W185" type="standard_car" route="E2W" depart="120.64368918798903" departLane="random" departSpeed="10" />
<vehicle id="S2N186" type="standard_car" route="S2N" depart="121.3879318637465" departLane="random" departSpeed="10" />
<vehicle id="S2N187" type="standard_car" route="S2N" depart="122.44667967491523" departLane="random" departSpeed="10" />
<vehicle id="E2N188" type="standard_car" route="E2N" depart="122.97518798490646" departLane="random" departSpeed="10" />
<vehicle id="N2S189" type="standard_car" route="N2S" depart="124.2076465599397" departLane="random" departSpeed="10" />
<vehicle id="W2E190" type="standard_car" route="W2E" depart="126.428868172593" departLane="random" departSpeed="10" />
<vehicle id="E2W191" type="standard_car" route="E2W" depart="126.76294861257358" departLane="random" departSpeed="10" />
<vehicle id="S2N192" type="standard_car" route="S2N" depart="128.88883442515953" departLane="random" departSpeed="10" />
<vehicle id="W2E193" type="standard_car" route="W2E" depart="128.89608722353725" departLane="random" departSpeed="10" />
<vehicle id="N2S194" type="standard_car" route="N2S" depart="130.46415704987558" departLane="random" departSpeed="10" />
<vehicle id="W2E195" type="standard_car" route="W2E" depart="130.77221966259486" departLane="random" departSpeed="10" />
<vehicle id="N2S196" type="standard_car" route="N2S" depart="131.65932054923772" departLane="random" departSpeed="10" />
<vehicle id="W2E197" type="standard_car" route="W2E" depart="134.2698629625136" departLane="random" departSpeed="10" />
<vehicle id="S2W198" type="standard_car" route="S2W" depart="135.31972301455806" departLane="random" departSpeed="10" />
<vehicle id="W2E199" type="standard_car" route="W2E" depart="136.4014253856104" departLane="random" departSpeed="10" />
<vehicle id="N2S200" type="standard_car" route="N2S" depart="137.26113401586096" departLane="random" departSpeed="10" />
<vehicle id="S2N201" type="standard_car" route="S2N" depart="138.89005759813156" departLane="random" departSpeed="10" />
<vehicle id="S2N202" type="standard_car" route="S2N" depart="140.0608773401397" departLane="random" departSpeed="10" />
<vehicle id="E2W203" type="standard_car" route="E2W" depart="142.9001939814211" departLane="random" departSpeed="10" />
<vehicle id="S2N204" type="standard_car" route="S2N" depart="143.58909515366304" departLane="random" departSpeed="10" />
<vehicle id="N2S205" type="standard_car" route="N2S" depart="144.04133285576097" departLane="random" departSpeed="10" />
<vehicle id="N2S206" type="standard_car" route="N2S" depart="144.8167389421359" departLane="random" departSpeed="10" />
<vehicle id="S2N207" type="standard_car" route="S2N" depart="146.7458220011603" departLane="random" departSpeed="10" />
<vehicle id="S2N208" type="standard_car" route="S2N" depart="154.74158592637374" departLane="random" departSpeed="10" />
<vehicle id="E2W209" type="standard_car" route="E2W" depart="155.90047802111832" departLane="random" departSpeed="10" />
<vehicle id="N2W210" type="standard_car" route="N2W" depart="156.6030675469259" departLane="random" departSpeed="10" />
<vehicle id="E2W211" type="standard_car" route="E2W" depart="169.33064549353392" departLane="random" departSpeed="10" />
<vehicle id="N2W212" type="standard_car" route="N2W" depart="169.3854415892608" departLane="random" departSpeed="10" />
<vehicle id="E2W213" type="standard_car" route="E2W" depart="171.2184484211304" departLane="random" departSpeed="10" />
<vehicle id="W2E214" type="standard_car" route="W2E" depart="192.94436301391525" departLane="random" departSpeed="10" />
<vehicle id="N2E215" type="standard_car" route="N2E" depart="200.0" departLane="random" departSpeed="10" />
</routes>
