<?xml version="1.0" encoding="UTF-8"?>

            <routes xmlns:xsi="http://www.w3.org/2001/XMLSchema-instance">
   
            <vType accel="1.0" decel="4.5" id="standard_car" length="5.0" minGap="2.5" maxSpeed="25" sigma="0.5" />) 
            
            <route id="N2W" edges="-125514711 125514713"/>
            <route id="N2S" edges="-125514711 -125514709"/>
            <route id="N2E" edges="-125514711 -548975769"/>     
            <route id="W2N" edges="-125514713 125514711"/>
            <route id="W2E" edges="-125514713 -548975769"/>
            <route id="W2S" edges="-125514711 -125514709"/>
            <route id="S2W" edges="125514709 125514713"/>
            <route id="S2N" edges="125514709 125514711"/>
            <route id="S2E" edges="-125514711 -548975769"/>
            <route id="E2S" edges="548975769 -125514709"/>
            <route id="E2W" edges="548975769 125514713"/>
            <route id="E2N" edges="548975769 125514711"/>
            
<vehicle id="S2N0" type="standard_car" route="S2N" depart="1.9455649201526184" departLane="random" departSpeed="10" />
<vehicle id="E2W1" type="standard_car" route="E2W" depart="22.81067435154032" departLane="random" departSpeed="10" />
<vehicle id="W2E2" type="standard_car" route="W2E" depart="36.0744906613711" departLane="random" departSpeed="10" />
<vehicle id="E2W3" type="standard_car" route="E2W" depart="38.46622140498186" departLane="random" departSpeed="10" />
<vehicle id="W2E4" type="standard_car" route="W2E" depart="41.91152253617801" departLane="random" departSpeed="10" />
<vehicle id="W2E5" type="standard_car" route="W2E" depart="51.691529495230505" departLane="random" departSpeed="10" />
<vehicle id="N2E6" type="standard_car" route="N2E" depart="64.28303566203707" departLane="random" departSpeed="10" />
<vehicle id="N2S7" type="standard_car" route="N2S" depart="70.10512147604379" departLane="random" departSpeed="10" />
<vehicle id="N2S8" type="standard_car" route="N2S" depart="70.25065424766022" departLane="random" departSpeed="10" />
<vehicle id="W2E9" type="standard_car" route="W2E" depart="73.70187613615109" departLane="random" departSpeed="10" />
<vehicle id="S2N10" type="standard_car" route="S2N" depart="85.24108751101978" departLane="random" departSpeed="10" />
<vehicle id="S2W11" type="standard_car" route="S2W" depart="88.13461182570799" departLane="random" departSpeed="10" />
<vehicle id="W2E12" type="standard_car" route="W2E" depart="89.67980235075044" departLane="random" departSpeed="10" />
<vehicle id="S2N13" type="standard_car" route="S2N" depart="92.08409893802455" departLane="random" departSpeed="10" />
<vehicle id="W2N14" type="standard_car" route="W2N" depart="92.20005855819812" departLane="random" departSpeed="10" />
<vehicle id="E2S15" type="standard_car" route="E2S" depart="98.2424951736468" departLane="random" departSpeed="10" />
<vehicle id="S2N16" type="standard_car" route="S2N" depart="102.38947766091691" departLane="random" departSpeed="10" />
<vehicle id="E2W17" type="standard_car" route="E2W" depart="109.52593594713176" departLane="random" departSpeed="10" />
<vehicle id="S2N18" type="standard_car" route="S2N" depart="111.0761929128141" departLane="random" departSpeed="10" />
<vehicle id="E2W19" type="standard_car" route="E2W" depart="112.2022929412081" departLane="random" departSpeed="10" />
<vehicle id="W2E20" type="standard_car" route="W2E" depart="123.68068353350455" departLane="random" departSpeed="10" />
<vehicle id="W2E21" type="standard_car" route="W2E" depart="124.43448154753887" departLane="random" departSpeed="10" />
<vehicle id="E2W22" type="standard_car" route="E2W" depart="133.53189015431792" departLane="random" departSpeed="10" />
<vehicle id="S2N23" type="standard_car" route="S2N" depart="135.43654440457036" departLane="random" departSpeed="10" />
<vehicle id="N2S24" type="standard_car" route="N2S" depart="135.9966288654108" departLane="random" departSpeed="10" />
<vehicle id="W2E25" type="standard_car" route="W2E" depart="137.14544998527472" departLane="random" departSpeed="10" />
<vehicle id="S2N26" type="standard_car" route="S2N" depart="138.78193304619205" departLane="random" departSpeed="10" />
<vehicle id="S2N27" type="standard_car" route="S2N" depart="141.13728884743296" departLane="random" departSpeed="10" />
<vehicle id="E2W28" type="standard_car" route="E2W" depart="144.54926839535645" departLane="random" departSpeed="10" />
<vehicle id="S2N29" type="standard_car" route="S2N" depart="148.161438609544" departLane="random" departSpeed="10" />
<vehicle id="E2W30" type="standard_car" route="E2W" depart="152.85225873277813" departLane="random" departSpeed="10" />
<vehicle id="S2N31" type="standard_car" route="S2N" depart="153.8675555725224" departLane="random" departSpeed="10" />
<vehicle id="E2W32" type="standard_car" route="E2W" depart="154.23977591100305" departLane="random" departSpeed="10" />
<vehicle id="N2S33" type="standard_car" route="N2S" depart="156.59071140518336" departLane="random" departSpeed="10" />
<vehicle id="E2W34" type="standard_car" route="E2W" depart="156.70982043209838" departLane="random" departSpeed="10" />
<vehicle id="W2E35" type="standard_car" route="W2E" depart="157.03222342150326" departLane="random" departSpeed="10" />
<vehicle id="W2N36" type="standard_car" route="W2N" depart="160.06805484240743" departLane="random" departSpeed="10" />
<vehicle id="E2W37" type="standard_car" route="E2W" depart="161.56315797837837" departLane="random" departSpeed="10" />
<vehicle id="N2W38" type="standard_car" route="N2W" depart="161.83445875524967" departLane="random" departSpeed="10" />
<vehicle id="W2N39" type="standard_car" route="W2N" depart="165.11979801411348" departLane="random" departSpeed="10" />
<vehicle id="S2N40" type="standard_car" route="S2N" depart="167.61507901460217" departLane="random" departSpeed="10" />
<vehicle id="S2N41" type="standard_car" route="S2N" depart="167.7974180426856" departLane="random" departSpeed="10" />
<vehicle id="N2S42" type="standard_car" route="N2S" depart="171.40500085327696" departLane="random" departSpeed="10" />
<vehicle id="N2S43" type="standard_car" route="N2S" depart="176.6100160310767" departLane="random" departSpeed="10" />
<vehicle id="N2S44" type="standard_car" route="N2S" depart="182.87936184188052" departLane="random" departSpeed="10" />
<vehicle id="N2S45" type="standard_car" route="N2S" depart="185.70230577728333" departLane="random" departSpeed="10" />
<vehicle id="E2N46" type="standard_car" route="E2N" depart="186.2528687987614" departLane="random" departSpeed="10" />
<vehicle id="S2N47" type="standard_car" route="S2N" depart="196.2980032473361" departLane="random" departSpeed="10" />
<vehicle id="N2S48" type="standard_car" route="N2S" depart="199.26665780972695" departLane="random" departSpeed="10" />
<vehicle id="S2N49" type="standard_car" route="S2N" depart="200.90518828161547" departLane="random" departSpeed="10" />
<vehicle id="W2E50" type="standard_car" route="W2E" depart="207.14607579437038" departLane="random" departSpeed="10" />
<vehicle id="E2W51" type="standard_car" route="E2W" depart="207.7356045489544" departLane="random" departSpeed="10" />
<vehicle id="E2W52" type="standard_car" route="E2W" depart="212.02023003671007" departLane="random" departSpeed="10" />
<vehicle id="W2E53" type="standard_car" route="W2E" depart="212.54160869758252" departLane="random" departSpeed="10" />
<vehicle id="N2S54" type="standard_car" route="N2S" depart="212.6693027637998" departLane="random" departSpeed="10" />
<vehicle id="W2E55" type="standard_car" route="W2E" depart="215.56651678218017" departLane="random" departSpeed="10" />
<vehicle id="E2W56" type="standard_car" route="E2W" depart="216.0996354088323" departLane="random" departSpeed="10" />
<vehicle id="W2E57" type="standard_car" route="W2E" depart="218.62636840984698" departLane="random" departSpeed="10" />
<vehicle id="W2N58" type="standard_car" route="W2N" depart="224.70049836750144" departLane="random" departSpeed="10" />
<vehicle id="N2E59" type="standard_car" route="N2E" depart="242.40694428724714" departLane="random" departSpeed="10" />
<vehicle id="W2E60" type="standard_car" route="W2E" depart="244.10556362150456" departLane="random" departSpeed="10" />
<vehicle id="E2W61" type="standard_car" route="E2W" depart="249.10252183928816" departLane="random" departSpeed="10" />
<vehicle id="N2S62" type="standard_car" route="N2S" depart="251.7987614408948" departLane="random" departSpeed="10" />
<vehicle id="N2S63" type="standard_car" route="N2S" depart="254.60397520057452" departLane="random" departSpeed="10" />
<vehicle id="E2W64" type="standard_car" route="E2W" depart="263.6443608466904" departLane="random" departSpeed="10" />
<vehicle id="W2E65" type="standard_car" route="W2E" depart="273.6677694845299" departLane="random" departSpeed="10" />
<vehicle id="E2W66" type="standard_car" route="E2W" depart="275.9002334791032" departLane="random" departSpeed="10" />
<vehicle id="E2W67" type="standard_car" route="E2W" depart="287.25116727955134" departLane="random" departSpeed="10" />
<vehicle id="N2S68" type="standard_car" route="N2S" depart="288.41894000996234" departLane="random" departSpeed="10" />
<vehicle id="N2S69" type="standard_car" route="N2S" depart="291.72448640224155" departLane="random" departSpeed="10" />
<vehicle id="N2S70" type="standard_car" route="N2S" depart="316.92922950941534" departLane="random" departSpeed="10" />
<vehicle id="E2W71" type="standard_car" route="E2W" depart="340.1175507633566" departLane="random" departSpeed="10" />
<vehicle id="S2E72" type="standard_car" route="S2E" depart="345.38838516427523" departLane="random" departSpeed="10" />
<vehicle id="E2W73" type="standard_car" route="E2W" depart="347.0179264275839" departLane="random" departSpeed="10" />
<vehicle id="N2S74" type="standard_car" route="N2S" depart="400.0" departLane="random" departSpeed="10" />
</routes>
