<?xml version="1.0" encoding="UTF-8"?>

            <routes xmlns:xsi="http://www.w3.org/2001/XMLSchema-instance">
   
            <vType accel="1.0" decel="4.5" id="standard_car" length="5.0" minGap="2.5" maxSpeed="25" sigma="0.5" />) 
            
            <route id="N2W" edges="-125514711 125514713"/>
            <route id="N2S" edges="-125514711 -125514709"/>
            <route id="N2E" edges="-125514711 -548975769"/>     
            <route id="W2N" edges="-125514713 125514711"/>
            <route id="W2E" edges="-125514713 -548975769"/>
            <route id="W2S" edges="-125514711 -125514709"/>
            <route id="S2W" edges="125514709 125514713"/>
            <route id="S2N" edges="125514709 125514711"/>
            <route id="S2E" edges="-125514711 -548975769"/>
            <route id="E2S" edges="548975769 -125514709"/>
            <route id="E2W" edges="548975769 125514713"/>
            <route id="E2N" edges="548975769 125514711"/>
            
<vehicle id="E2W0" type="standard_car" route="E2W" depart="13.464588717242167" departLane="random" departSpeed="10" />
<vehicle id="S2N1" type="standard_car" route="S2N" depart="24.281896880966723" departLane="random" departSpeed="10" />
<vehicle id="N2E2" type="standard_car" route="N2E" depart="25.335925303335728" departLane="random" departSpeed="10" />
<vehicle id="E2W3" type="standard_car" route="E2W" depart="26.661854224149213" departLane="random" departSpeed="10" />
<vehicle id="S2N4" type="standard_car" route="S2N" depart="39.40733698637532" departLane="random" departSpeed="10" />
<vehicle id="E2W5" type="standard_car" route="E2W" depart="40.85810758364703" departLane="random" departSpeed="10" />
<vehicle id="S2N6" type="standard_car" route="S2N" depart="48.007276626518276" departLane="random" departSpeed="10" />
<vehicle id="N2S7" type="standard_car" route="N2S" depart="48.376474468689246" departLane="random" departSpeed="10" />
<vehicle id="W2E8" type="standard_car" route="W2E" depart="50.979913932083235" departLane="random" departSpeed="10" />
<vehicle id="N2S9" type="standard_car" route="N2S" depart="55.612873638784606" departLane="random" departSpeed="10" />
<vehicle id="S2N10" type="standard_car" route="S2N" depart="59.58099196912617" departLane="random" departSpeed="10" />
<vehicle id="W2E11" type="standard_car" route="W2E" depart="65.7251318009903" departLane="random" departSpeed="10" />
<vehicle id="W2E12" type="standard_car" route="W2E" depart="65.72980397322411" departLane="random" departSpeed="10" />
<vehicle id="E2W13" type="standard_car" route="E2W" depart="70.34053389208266" departLane="random" departSpeed="10" />
<vehicle id="E2W14" type="standard_car" route="E2W" depart="70.76585991388284" departLane="random" departSpeed="10" />
<vehicle id="S2N15" type="standard_car" route="S2N" depart="71.5770222061702" departLane="random" departSpeed="10" />
<vehicle id="S2W16" type="standard_car" route="S2W" depart="77.33949944109735" departLane="random" departSpeed="10" />
<vehicle id="W2E17" type="standard_car" route="W2E" depart="80.60693424249149" departLane="random" departSpeed="10" />
<vehicle id="N2W18" type="standard_car" route="N2W" depart="85.44401725631687" departLane="random" departSpeed="10" />
<vehicle id="W2E19" type="standard_car" route="W2E" depart="89.7311648752466" departLane="random" departSpeed="10" />
<vehicle id="N2W20" type="standard_car" route="N2W" depart="91.0846970760427" departLane="random" departSpeed="10" />
<vehicle id="E2W21" type="standard_car" route="E2W" depart="95.22760722399154" departLane="random" departSpeed="10" />
<vehicle id="W2E22" type="standard_car" route="W2E" depart="98.11618124742942" departLane="random" departSpeed="10" />
<vehicle id="E2W23" type="standard_car" route="E2W" depart="105.77079995977405" departLane="random" departSpeed="10" />
<vehicle id="N2E24" type="standard_car" route="N2E" depart="113.85400901838447" departLane="random" departSpeed="10" />
<vehicle id="W2E25" type="standard_car" route="W2E" depart="117.38757488854343" departLane="random" departSpeed="10" />
<vehicle id="S2E26" type="standard_car" route="S2E" depart="117.96761058278375" departLane="random" departSpeed="10" />
<vehicle id="N2S27" type="standard_car" route="N2S" depart="118.93852576877642" departLane="random" departSpeed="10" />
<vehicle id="N2S28" type="standard_car" route="N2S" depart="120.3738600381282" departLane="random" departSpeed="10" />
<vehicle id="W2E29" type="standard_car" route="W2E" depart="122.82957672897672" departLane="random" departSpeed="10" />
<vehicle id="W2N30" type="standard_car" route="W2N" depart="123.31502103263145" departLane="random" departSpeed="10" />
<vehicle id="N2S31" type="standard_car" route="N2S" depart="124.18702995711418" departLane="random" departSpeed="10" />
<vehicle id="E2W32" type="standard_car" route="E2W" depart="124.27486960967617" departLane="random" departSpeed="10" />
<vehicle id="N2S33" type="standard_car" route="N2S" depart="128.018353264005" departLane="random" departSpeed="10" />
<vehicle id="W2N34" type="standard_car" route="W2N" depart="133.00690437535226" departLane="random" departSpeed="10" />
<vehicle id="N2S35" type="standard_car" route="N2S" depart="133.93454157778177" departLane="random" departSpeed="10" />
<vehicle id="E2W36" type="standard_car" route="E2W" depart="136.56344154290923" departLane="random" departSpeed="10" />
<vehicle id="E2N37" type="standard_car" route="E2N" depart="137.31628035238552" departLane="random" departSpeed="10" />
<vehicle id="S2N38" type="standard_car" route="S2N" depart="137.36565063947734" departLane="random" departSpeed="10" />
<vehicle id="N2S39" type="standard_car" route="N2S" depart="138.70473858438177" departLane="random" departSpeed="10" />
<vehicle id="N2S40" type="standard_car" route="N2S" depart="139.69566581681588" departLane="random" departSpeed="10" />
<vehicle id="N2W41" type="standard_car" route="N2W" depart="140.93012071165285" departLane="random" departSpeed="10" />
<vehicle id="N2S42" type="standard_car" route="N2S" depart="142.58425281927614" departLane="random" departSpeed="10" />
<vehicle id="S2N43" type="standard_car" route="S2N" depart="146.78792316002713" departLane="random" departSpeed="10" />
<vehicle id="E2N44" type="standard_car" route="E2N" depart="149.02989925467546" departLane="random" departSpeed="10" />
<vehicle id="E2W45" type="standard_car" route="E2W" depart="149.33083536368886" departLane="random" departSpeed="10" />
<vehicle id="W2E46" type="standard_car" route="W2E" depart="149.6657977963386" departLane="random" departSpeed="10" />
<vehicle id="W2E47" type="standard_car" route="W2E" depart="150.5075259658532" departLane="random" departSpeed="10" />
<vehicle id="E2N48" type="standard_car" route="E2N" depart="156.17731398803002" departLane="random" departSpeed="10" />
<vehicle id="N2S49" type="standard_car" route="N2S" depart="156.2155115889546" departLane="random" departSpeed="10" />
<vehicle id="E2S50" type="standard_car" route="E2S" depart="159.38175670937946" departLane="random" departSpeed="10" />
<vehicle id="N2S51" type="standard_car" route="N2S" depart="159.87929037464025" departLane="random" departSpeed="10" />
<vehicle id="N2S52" type="standard_car" route="N2S" depart="166.5576955529913" departLane="random" departSpeed="10" />
<vehicle id="W2E53" type="standard_car" route="W2E" depart="167.4657424048238" departLane="random" departSpeed="10" />
<vehicle id="N2S54" type="standard_car" route="N2S" depart="168.75325361584058" departLane="random" departSpeed="10" />
<vehicle id="E2W55" type="standard_car" route="E2W" depart="178.16693081161637" departLane="random" departSpeed="10" />
<vehicle id="N2W56" type="standard_car" route="N2W" depart="181.62752006499196" departLane="random" departSpeed="10" />
<vehicle id="W2E57" type="standard_car" route="W2E" depart="181.92466433936173" departLane="random" departSpeed="10" />
<vehicle id="W2S58" type="standard_car" route="W2S" depart="182.91017107070002" departLane="random" departSpeed="10" />
<vehicle id="W2E59" type="standard_car" route="W2E" depart="185.279089338879" departLane="random" departSpeed="10" />
<vehicle id="E2W60" type="standard_car" route="E2W" depart="186.9918795527729" departLane="random" departSpeed="10" />
<vehicle id="S2N61" type="standard_car" route="S2N" depart="187.18988111389893" departLane="random" departSpeed="10" />
<vehicle id="W2N62" type="standard_car" route="W2N" depart="188.23334870131796" departLane="random" departSpeed="10" />
<vehicle id="N2E63" type="standard_car" route="N2E" depart="193.7805148765967" departLane="random" departSpeed="10" />
<vehicle id="W2E64" type="standard_car" route="W2E" depart="196.08684070942027" departLane="random" departSpeed="10" />
<vehicle id="N2S65" type="standard_car" route="N2S" depart="196.16290305894717" departLane="random" departSpeed="10" />
<vehicle id="N2W66" type="standard_car" route="N2W" depart="197.0880385227296" departLane="random" departSpeed="10" />
<vehicle id="W2E67" type="standard_car" route="W2E" depart="197.24379102184747" departLane="random" departSpeed="10" />
<vehicle id="W2E68" type="standard_car" route="W2E" depart="197.70882259256365" departLane="random" departSpeed="10" />
<vehicle id="W2E69" type="standard_car" route="W2E" depart="199.24216736647256" departLane="random" departSpeed="10" />
<vehicle id="N2W70" type="standard_car" route="N2W" depart="204.14040325132703" departLane="random" departSpeed="10" />
<vehicle id="S2N71" type="standard_car" route="S2N" depart="207.21574346815513" departLane="random" departSpeed="10" />
<vehicle id="S2N72" type="standard_car" route="S2N" depart="208.04307910181217" departLane="random" departSpeed="10" />
<vehicle id="S2N73" type="standard_car" route="S2N" depart="216.87607721299057" departLane="random" departSpeed="10" />
<vehicle id="N2S74" type="standard_car" route="N2S" depart="217.49724243213407" departLane="random" departSpeed="10" />
<vehicle id="E2W75" type="standard_car" route="E2W" depart="219.00845409547878" departLane="random" departSpeed="10" />
<vehicle id="S2N76" type="standard_car" route="S2N" depart="219.1116295423873" departLane="random" departSpeed="10" />
<vehicle id="W2E77" type="standard_car" route="W2E" depart="219.96578330069894" departLane="random" departSpeed="10" />
<vehicle id="E2S78" type="standard_car" route="E2S" depart="232.0888728490566" departLane="random" departSpeed="10" />
<vehicle id="W2E79" type="standard_car" route="W2E" depart="232.91348409798067" departLane="random" departSpeed="10" />
<vehicle id="E2N80" type="standard_car" route="E2N" depart="234.15873046222376" departLane="random" departSpeed="10" />
<vehicle id="W2N81" type="standard_car" route="W2N" depart="239.41846662558265" departLane="random" departSpeed="10" />
<vehicle id="S2N82" type="standard_car" route="S2N" depart="248.0746637080725" departLane="random" departSpeed="10" />
<vehicle id="E2W83" type="standard_car" route="E2W" depart="254.83073968865943" departLane="random" departSpeed="10" />
<vehicle id="W2E84" type="standard_car" route="W2E" depart="260.174221699838" departLane="random" departSpeed="10" />
<vehicle id="S2N85" type="standard_car" route="S2N" depart="260.5604305813622" departLane="random" departSpeed="10" />
<vehicle id="E2S86" type="standard_car" route="E2S" depart="264.37148896976703" departLane="random" departSpeed="10" />
<vehicle id="W2E87" type="standard_car" route="W2E" depart="270.12545690710294" departLane="random" departSpeed="10" />
<vehicle id="E2W88" type="standard_car" route="E2W" depart="272.03053052996836" departLane="random" departSpeed="10" />
<vehicle id="N2W89" type="standard_car" route="N2W" depart="274.992982547849" departLane="random" departSpeed="10" />
<vehicle id="N2S90" type="standard_car" route="N2S" depart="285.0367983923239" departLane="random" departSpeed="10" />
<vehicle id="E2W91" type="standard_car" route="E2W" depart="287.28862338414154" departLane="random" departSpeed="10" />
<vehicle id="N2W92" type="standard_car" route="N2W" depart="287.78449724450763" departLane="random" departSpeed="10" />
<vehicle id="S2N93" type="standard_car" route="S2N" depart="293.1990628472753" departLane="random" departSpeed="10" />
<vehicle id="S2N94" type="standard_car" route="S2N" depart="295.2316615042287" departLane="random" departSpeed="10" />
<vehicle id="E2W95" type="standard_car" route="E2W" depart="355.14944416539015" departLane="random" departSpeed="10" />
<vehicle id="E2N96" type="standard_car" route="E2N" depart="396.61371209710575" departLane="random" departSpeed="10" />
<vehicle id="N2S97" type="standard_car" route="N2S" depart="402.4664036801994" departLane="random" departSpeed="10" />
<vehicle id="E2N98" type="standard_car" route="E2N" depart="497.86809239037075" departLane="random" departSpeed="10" />
<vehicle id="N2S99" type="standard_car" route="N2S" depart="500.0" departLane="random" departSpeed="10" />
</routes>
