<?xml version="1.0" encoding="UTF-8"?>

<!-- generated on 2024-01-02 14:05:15.314369 by osmWebWizard.py v1_19_0+0551-7cbdaa382aa
<configuration>
    <net-file value="/Users/hectorheltjakobsen/sumo/tools/2024-01-02-14-05-12/osm.net.xml.gz"/>
    <output-trip-file value="/Users/hectorheltjakobsen/sumo/tools/2024-01-02-14-05-12/osm.passenger.trips.xml"/>
    <route-file value="/Users/hectorheltjakobsen/sumo/tools/2024-01-02-14-05-12/osm.passenger.rou.xml"/>
    <prefix value="veh"/>
    <trip-attributes value="departLane=&quot;best&quot;"/>
    <fringe-start-attributes value="departSpeed=&quot;max&quot;"/>
    <vehicle-class value="passenger"/>
    <lanes value="True"/>
    <fringe-factor value="5"/>
    <allow-fringe.min-length value="1000.0"/>
    <via-edge-types value="highway.motorway,highway.motorway_link,highway.trunk_link,highway.primary_link,highway.secondary_link,highway.tertiary_link"/>
    <min-distance value="300.0"/>
    <min-distance.fringe value="10.0"/>
    <remove-loops value="True"/>
    <validate value="True"/>
    <insertion-density value="12.0"/>
</configuration>
-->

<!-- generated on 2024-01-02 14:05:15 by Eclipse SUMO duarouter Version v1_19_0+0551-7cbdaa382aa
<configuration xmlns:xsi="http://www.w3.org/2001/XMLSchema-instance" xsi:noNamespaceSchemaLocation="http://sumo.dlr.de/xsd/duarouterConfiguration.xsd">

    <input>
        <net-file value="/Users/hectorheltjakobsen/sumo/tools/2024-01-02-14-05-12/osm.net.xml.gz"/>
        <route-files value="/Users/hectorheltjakobsen/sumo/tools/2024-01-02-14-05-12/osm.passenger.trips.xml"/>
    </input>

    <output>
        <output-file value="/Users/hectorheltjakobsen/sumo/tools/2024-01-02-14-05-12/osm.passenger.trips.xml.tmp"/>
        <alternatives-output value="NUL"/>
        <write-trips value="true"/>
    </output>

    <processing>
        <remove-loops value="true"/>
    </processing>

    <time>
        <begin value="0.0"/>
        <end value="3600.0"/>
    </time>

    <report>
        <no-warnings value="true"/>
        <ignore-errors value="true"/>
        <no-step-log value="true"/>
    </report>

</configuration>
-->

<routes xmlns:xsi="http://www.w3.org/2001/XMLSchema-instance" xsi:noNamespaceSchemaLocation="http://sumo.dlr.de/xsd/routes_file.xsd">
    <vType id="veh_passenger" vClass="passenger"/>
    <trip id="veh0" type="veh_passenger" depart="0.00" departLane="best" departSpeed="max" from="-125514713" to="-125514709"/>
    <trip id="veh1" type="veh_passenger" depart="181.55" departLane="best" departSpeed="max" from="125514709" to="125514711"/>
    <trip id="veh2" type="veh_passenger" depart="363.09" departLane="best" departSpeed="max" from="-125514713" to="-125514709"/>
    <trip id="veh3" type="veh_passenger" depart="544.64" departLane="best" departSpeed="max" from="-125514711" to="-125514709"/>
    <trip id="veh4" type="veh_passenger" depart="726.19" departLane="best" departSpeed="max" from="125514709" to="125514711"/>
    <trip id="veh5" type="veh_passenger" depart="907.73" departLane="best" departSpeed="max" from="548975769" to="125514711"/>
    <trip id="veh6" type="veh_passenger" depart="1089.28" departLane="best" departSpeed="max" from="-125514713" to="-125514709"/>
    <trip id="veh7" type="veh_passenger" depart="1270.82" departLane="best" departSpeed="max" from="-125514711" to="-125514709"/>
    <trip id="veh8" type="veh_passenger" depart="1452.37" departLane="best" departSpeed="max" from="548975769" to="125514711"/>
    <trip id="veh9" type="veh_passenger" depart="1633.92" departLane="best" departSpeed="max" from="548975769" to="125514711"/>
    <trip id="veh10" type="veh_passenger" depart="1815.46" departLane="best" departSpeed="max" from="125514709" to="125514713"/>
    <trip id="veh11" type="veh_passenger" depart="1997.01" departLane="best" departSpeed="max" from="-125514713" to="125514711"/>
    <trip id="veh12" type="veh_passenger" depart="2178.56" departLane="best" departSpeed="max" from="548975769" to="125514711"/>
    <trip id="veh13" type="veh_passenger" depart="2360.10" departLane="best" departSpeed="max" from="548975769" to="125514711"/>
    <trip id="veh14" type="veh_passenger" depart="2541.65" departLane="best" departSpeed="max" from="-125514711" to="-548975769"/>
    <trip id="veh15" type="veh_passenger" depart="2723.20" departLane="best" departSpeed="max" from="-125514711" to="-125514709"/>
    <trip id="veh16" type="veh_passenger" depart="2904.74" departLane="best" departSpeed="max" from="-125514711" to="-548975769"/>
    <trip id="veh17" type="veh_passenger" depart="3086.29" departLane="best" departSpeed="max" from="-125514713" to="-125514709"/>
    <trip id="veh18" type="veh_passenger" depart="3267.84" departLane="best" departSpeed="max" from="125514709" to="125514711"/>
    <trip id="veh19" type="veh_passenger" depart="3449.38" departLane="best" departSpeed="max" from="-125514711" to="-548975769"/>
</routes>
