<?xml version="1.0" encoding="UTF-8"?>

            <routes xmlns:xsi="http://www.w3.org/2001/XMLSchema-instance">
   
            <vType accel="1.0" decel="4.5" id="standard_car" length="5.0" minGap="2.5" maxSpeed="25" sigma="0.5" />) 
            
            <route id="N2W" edges="-125514711 125514713"/>
            <route id="N2S" edges="-125514711 -125514709"/>
            <route id="N2E" edges="-125514711 -548975769"/>     
            <route id="W2N" edges="-125514713 125514711"/>
            <route id="W2E" edges="-125514713 -548975769"/>
            <route id="W2S" edges="-125514711 -125514709"/>
            <route id="S2W" edges="125514709 125514713"/>
            <route id="S2N" edges="125514709 125514711"/>
            <route id="S2E" edges="-125514711 -548975769"/>
            <route id="E2S" edges="548975769 -125514709"/>
            <route id="E2W" edges="548975769 125514713"/>
            <route id="E2N" edges="548975769 125514711"/>
            
<vehicle id="N2S0" type="standard_car" route="N2S" depart="23.74555914339095" departLane="random" departSpeed="10" />
<vehicle id="E2W1" type="standard_car" route="E2W" depart="25.857985417251733" departLane="random" departSpeed="10" />
<vehicle id="W2E2" type="standard_car" route="W2E" depart="34.42896638911096" departLane="random" departSpeed="10" />
<vehicle id="E2W3" type="standard_car" route="E2W" depart="38.92369575146735" departLane="random" departSpeed="10" />
<vehicle id="S2E4" type="standard_car" route="S2E" depart="39.7974748286958" departLane="random" departSpeed="10" />
<vehicle id="E2N5" type="standard_car" route="E2N" depart="44.57057326527451" departLane="random" departSpeed="10" />
<vehicle id="W2E6" type="standard_car" route="W2E" depart="45.62136213615955" departLane="random" departSpeed="10" />
<vehicle id="W2N7" type="standard_car" route="W2N" depart="52.32647976977573" departLane="random" departSpeed="10" />
<vehicle id="N2W8" type="standard_car" route="N2W" depart="52.516347345438696" departLane="random" departSpeed="10" />
<vehicle id="W2N9" type="standard_car" route="W2N" depart="57.08441185496592" departLane="random" departSpeed="10" />
<vehicle id="N2E10" type="standard_car" route="N2E" depart="60.504249790111835" departLane="random" departSpeed="10" />
<vehicle id="N2E11" type="standard_car" route="N2E" depart="62.80360689862775" departLane="random" departSpeed="10" />
<vehicle id="N2S12" type="standard_car" route="N2S" depart="63.74824738611456" departLane="random" departSpeed="10" />
<vehicle id="N2S13" type="standard_car" route="N2S" depart="63.87458882919283" departLane="random" departSpeed="10" />
<vehicle id="S2N14" type="standard_car" route="S2N" depart="68.36066610510709" departLane="random" departSpeed="10" />
<vehicle id="S2W15" type="standard_car" route="S2W" depart="68.97530595163862" departLane="random" departSpeed="10" />
<vehicle id="E2N16" type="standard_car" route="E2N" depart="70.99020304575163" departLane="random" departSpeed="10" />
<vehicle id="S2N17" type="standard_car" route="S2N" depart="74.87348312552587" departLane="random" departSpeed="10" />
<vehicle id="S2E18" type="standard_car" route="S2E" depart="77.2396778122797" departLane="random" departSpeed="10" />
<vehicle id="E2N19" type="standard_car" route="E2N" depart="77.24593320482715" departLane="random" departSpeed="10" />
<vehicle id="N2E20" type="standard_car" route="N2E" depart="77.25778119797394" departLane="random" departSpeed="10" />
<vehicle id="W2S21" type="standard_car" route="W2S" depart="81.37149726500668" departLane="random" departSpeed="10" />
<vehicle id="N2S22" type="standard_car" route="N2S" depart="87.71373182996518" departLane="random" departSpeed="10" />
<vehicle id="N2W23" type="standard_car" route="N2W" depart="95.90397664613671" departLane="random" departSpeed="10" />
<vehicle id="E2S24" type="standard_car" route="E2S" depart="98.50186348430576" departLane="random" departSpeed="10" />
<vehicle id="E2N25" type="standard_car" route="E2N" depart="99.48872973772922" departLane="random" departSpeed="10" />
<vehicle id="E2W26" type="standard_car" route="E2W" depart="101.03934653037976" departLane="random" departSpeed="10" />
<vehicle id="E2W27" type="standard_car" route="E2W" depart="101.9624448704614" departLane="random" departSpeed="10" />
<vehicle id="E2W28" type="standard_car" route="E2W" depart="102.38611732927423" departLane="random" departSpeed="10" />
<vehicle id="E2S29" type="standard_car" route="E2S" depart="105.48043033474701" departLane="random" departSpeed="10" />
<vehicle id="E2W30" type="standard_car" route="E2W" depart="111.16634997107403" departLane="random" departSpeed="10" />
<vehicle id="N2W31" type="standard_car" route="N2W" depart="113.8251668827918" departLane="random" departSpeed="10" />
<vehicle id="E2W32" type="standard_car" route="E2W" depart="117.2189680883019" departLane="random" departSpeed="10" />
<vehicle id="E2W33" type="standard_car" route="E2W" depart="118.07502414526846" departLane="random" departSpeed="10" />
<vehicle id="N2S34" type="standard_car" route="N2S" depart="118.2802777635062" departLane="random" departSpeed="10" />
<vehicle id="W2S35" type="standard_car" route="W2S" depart="118.41460083975386" departLane="random" departSpeed="10" />
<vehicle id="S2E36" type="standard_car" route="S2E" depart="137.41649415086238" departLane="random" departSpeed="10" />
<vehicle id="E2N37" type="standard_car" route="E2N" depart="141.27488619180716" departLane="random" departSpeed="10" />
<vehicle id="E2N38" type="standard_car" route="E2N" depart="145.79766166815867" departLane="random" departSpeed="10" />
<vehicle id="E2W39" type="standard_car" route="E2W" depart="146.35627001649985" departLane="random" departSpeed="10" />
<vehicle id="N2W40" type="standard_car" route="N2W" depart="158.98912685280877" departLane="random" departSpeed="10" />
<vehicle id="N2S41" type="standard_car" route="N2S" depart="164.88048729162432" departLane="random" departSpeed="10" />
<vehicle id="W2E42" type="standard_car" route="W2E" depart="167.49057309880146" departLane="random" departSpeed="10" />
<vehicle id="W2E43" type="standard_car" route="W2E" depart="171.204004219676" departLane="random" departSpeed="10" />
<vehicle id="S2W44" type="standard_car" route="S2W" depart="178.07313411514934" departLane="random" departSpeed="10" />
<vehicle id="W2E45" type="standard_car" route="W2E" depart="179.1032891442881" departLane="random" departSpeed="10" />
<vehicle id="N2S46" type="standard_car" route="N2S" depart="182.35770410993248" departLane="random" departSpeed="10" />
<vehicle id="N2W47" type="standard_car" route="N2W" depart="183.27958019991434" departLane="random" departSpeed="10" />
<vehicle id="E2S48" type="standard_car" route="E2S" depart="183.98677698139105" departLane="random" departSpeed="10" />
<vehicle id="S2N49" type="standard_car" route="S2N" depart="206.83659064650794" departLane="random" departSpeed="10" />
<vehicle id="S2E50" type="standard_car" route="S2E" depart="208.3522619757522" departLane="random" departSpeed="10" />
<vehicle id="S2N51" type="standard_car" route="S2N" depart="236.85171104791488" departLane="random" departSpeed="10" />
<vehicle id="N2S52" type="standard_car" route="N2S" depart="241.16738306844744" departLane="random" departSpeed="10" />
<vehicle id="W2E53" type="standard_car" route="W2E" depart="300.0" departLane="random" departSpeed="10" />
</routes>
