<?xml version="1.0" encoding="UTF-8"?>

            <routes xmlns:xsi="http://www.w3.org/2001/XMLSchema-instance">
   
            <vType accel="1.0" decel="4.5" id="standard_car" length="5.0" minGap="2.5" maxSpeed="25" sigma="0.5" />) 
            
            <route id="N2W" edges="-125514711 125514713"/>
            <route id="N2S" edges="-125514711 -125514709"/>
            <route id="N2E" edges="-125514711 -548975769"/>     
            <route id="W2N" edges="-125514713 125514711"/>
            <route id="W2E" edges="-125514713 -548975769"/>
            <route id="W2S" edges="-125514711 -125514709"/>
            <route id="S2W" edges="125514709 125514713"/>
            <route id="S2N" edges="125514709 125514711"/>
            <route id="S2E" edges="-125514711 -548975769"/>
            <route id="E2S" edges="548975769 -125514709"/>
            <route id="E2W" edges="548975769 125514713"/>
            <route id="E2N" edges="548975769 125514711"/>
            
<vehicle id="N2E0" type="standard_car" route="N2E" depart="17.65515121947087" departLane="random" departSpeed="10" />
<vehicle id="W2E1" type="standard_car" route="W2E" depart="34.85614595193377" departLane="random" departSpeed="10" />
<vehicle id="S2W2" type="standard_car" route="S2W" depart="36.18146274484619" departLane="random" departSpeed="10" />
<vehicle id="E2W3" type="standard_car" route="E2W" depart="45.82818458942482" departLane="random" departSpeed="10" />
<vehicle id="W2E4" type="standard_car" route="W2E" depart="53.23954109643745" departLane="random" departSpeed="10" />
<vehicle id="W2E5" type="standard_car" route="W2E" depart="58.86197581967407" departLane="random" departSpeed="10" />
<vehicle id="N2W6" type="standard_car" route="N2W" depart="59.42409654457991" departLane="random" departSpeed="10" />
<vehicle id="E2W7" type="standard_car" route="E2W" depart="65.26930929311254" departLane="random" departSpeed="10" />
<vehicle id="S2N8" type="standard_car" route="S2N" depart="75.63106570494203" departLane="random" departSpeed="10" />
<vehicle id="E2S9" type="standard_car" route="E2S" depart="81.80772835420072" departLane="random" departSpeed="10" />
<vehicle id="E2W10" type="standard_car" route="E2W" depart="82.1828198695684" departLane="random" departSpeed="10" />
<vehicle id="S2N11" type="standard_car" route="S2N" depart="82.33270348715097" departLane="random" departSpeed="10" />
<vehicle id="S2W12" type="standard_car" route="S2W" depart="83.25837231751926" departLane="random" departSpeed="10" />
<vehicle id="E2W13" type="standard_car" route="E2W" depart="89.83765969387372" departLane="random" departSpeed="10" />
<vehicle id="E2W14" type="standard_car" route="E2W" depart="93.31017642163843" departLane="random" departSpeed="10" />
<vehicle id="N2E15" type="standard_car" route="N2E" depart="101.01242694096022" departLane="random" departSpeed="10" />
<vehicle id="E2W16" type="standard_car" route="E2W" depart="101.22822211160793" departLane="random" departSpeed="10" />
<vehicle id="E2W17" type="standard_car" route="E2W" depart="101.37837372071385" departLane="random" departSpeed="10" />
<vehicle id="W2E18" type="standard_car" route="W2E" depart="107.46621769909632" departLane="random" departSpeed="10" />
<vehicle id="N2S19" type="standard_car" route="N2S" depart="111.89500841222421" departLane="random" departSpeed="10" />
<vehicle id="E2W20" type="standard_car" route="E2W" depart="114.05947834988204" departLane="random" departSpeed="10" />
<vehicle id="W2N21" type="standard_car" route="W2N" depart="115.57029980924005" departLane="random" departSpeed="10" />
<vehicle id="E2W22" type="standard_car" route="E2W" depart="116.09262794325164" departLane="random" departSpeed="10" />
<vehicle id="E2W23" type="standard_car" route="E2W" depart="125.10087023010892" departLane="random" departSpeed="10" />
<vehicle id="N2S24" type="standard_car" route="N2S" depart="125.90576167399404" departLane="random" departSpeed="10" />
<vehicle id="N2S25" type="standard_car" route="N2S" depart="132.05017616832254" departLane="random" departSpeed="10" />
<vehicle id="E2W26" type="standard_car" route="E2W" depart="133.6873925265222" departLane="random" departSpeed="10" />
<vehicle id="N2S27" type="standard_car" route="N2S" depart="139.98444068152733" departLane="random" departSpeed="10" />
<vehicle id="N2S28" type="standard_car" route="N2S" depart="142.08877038676945" departLane="random" departSpeed="10" />
<vehicle id="E2W29" type="standard_car" route="E2W" depart="145.51120211273673" departLane="random" departSpeed="10" />
<vehicle id="S2N30" type="standard_car" route="S2N" depart="145.5456874601538" departLane="random" departSpeed="10" />
<vehicle id="E2W31" type="standard_car" route="E2W" depart="146.7014975464152" departLane="random" departSpeed="10" />
<vehicle id="E2W32" type="standard_car" route="E2W" depart="152.3469631322142" departLane="random" departSpeed="10" />
<vehicle id="S2N33" type="standard_car" route="S2N" depart="162.09804707803954" departLane="random" departSpeed="10" />
<vehicle id="E2S34" type="standard_car" route="E2S" depart="165.30890067189205" departLane="random" departSpeed="10" />
<vehicle id="W2E35" type="standard_car" route="W2E" depart="167.92799466785658" departLane="random" departSpeed="10" />
<vehicle id="S2W36" type="standard_car" route="S2W" depart="168.58024558576986" departLane="random" departSpeed="10" />
<vehicle id="N2S37" type="standard_car" route="N2S" depart="170.81979736428877" departLane="random" departSpeed="10" />
<vehicle id="N2S38" type="standard_car" route="N2S" depart="171.61900757307498" departLane="random" departSpeed="10" />
<vehicle id="W2E39" type="standard_car" route="W2E" depart="172.41010781419408" departLane="random" departSpeed="10" />
<vehicle id="N2S40" type="standard_car" route="N2S" depart="175.10670991179794" departLane="random" departSpeed="10" />
<vehicle id="W2E41" type="standard_car" route="W2E" depart="179.43388154471526" departLane="random" departSpeed="10" />
<vehicle id="N2S42" type="standard_car" route="N2S" depart="185.90479226129602" departLane="random" departSpeed="10" />
<vehicle id="W2E43" type="standard_car" route="W2E" depart="195.85437533815383" departLane="random" departSpeed="10" />
<vehicle id="E2W44" type="standard_car" route="E2W" depart="208.50366417328132" departLane="random" departSpeed="10" />
<vehicle id="E2W45" type="standard_car" route="E2W" depart="215.7102048562965" departLane="random" departSpeed="10" />
<vehicle id="S2N46" type="standard_car" route="S2N" depart="216.12302465761047" departLane="random" departSpeed="10" />
<vehicle id="N2S47" type="standard_car" route="N2S" depart="216.95014911493448" departLane="random" departSpeed="10" />
<vehicle id="S2N48" type="standard_car" route="S2N" depart="218.31697730610395" departLane="random" departSpeed="10" />
<vehicle id="S2N49" type="standard_car" route="S2N" depart="223.96086452258479" departLane="random" departSpeed="10" />
<vehicle id="W2S50" type="standard_car" route="W2S" depart="224.58179869889335" departLane="random" departSpeed="10" />
<vehicle id="S2N51" type="standard_car" route="S2N" depart="231.03371327643796" departLane="random" departSpeed="10" />
<vehicle id="W2E52" type="standard_car" route="W2E" depart="246.46308304294405" departLane="random" departSpeed="10" />
<vehicle id="W2E53" type="standard_car" route="W2E" depart="252.56524702870777" departLane="random" departSpeed="10" />
<vehicle id="W2S54" type="standard_car" route="W2S" depart="252.93917455636935" departLane="random" departSpeed="10" />
<vehicle id="N2S55" type="standard_car" route="N2S" depart="256.502990919071" departLane="random" departSpeed="10" />
<vehicle id="W2E56" type="standard_car" route="W2E" depart="261.2229499973298" departLane="random" departSpeed="10" />
<vehicle id="S2E57" type="standard_car" route="S2E" depart="264.7008223607217" departLane="random" departSpeed="10" />
<vehicle id="W2N58" type="standard_car" route="W2N" depart="273.32223908644136" departLane="random" departSpeed="10" />
<vehicle id="S2N59" type="standard_car" route="S2N" depart="278.84788957345387" departLane="random" departSpeed="10" />
<vehicle id="S2N60" type="standard_car" route="S2N" depart="281.5362494343324" departLane="random" departSpeed="10" />
<vehicle id="S2N61" type="standard_car" route="S2N" depart="287.4028636730417" departLane="random" departSpeed="10" />
<vehicle id="E2W62" type="standard_car" route="E2W" depart="295.50387990566065" departLane="random" departSpeed="10" />
<vehicle id="E2W63" type="standard_car" route="E2W" depart="307.0737600033286" departLane="random" departSpeed="10" />
<vehicle id="E2W64" type="standard_car" route="E2W" depart="309.04321748389316" departLane="random" departSpeed="10" />
<vehicle id="E2W65" type="standard_car" route="E2W" depart="315.7400488957262" departLane="random" departSpeed="10" />
<vehicle id="S2N66" type="standard_car" route="S2N" depart="317.17518091362336" departLane="random" departSpeed="10" />
<vehicle id="S2N67" type="standard_car" route="S2N" depart="330.0651303605886" departLane="random" departSpeed="10" />
<vehicle id="W2E68" type="standard_car" route="W2E" depart="333.1553194675943" departLane="random" departSpeed="10" />
<vehicle id="E2W69" type="standard_car" route="E2W" depart="333.9617100878906" departLane="random" departSpeed="10" />
<vehicle id="N2S70" type="standard_car" route="N2S" depart="339.49231303684354" departLane="random" departSpeed="10" />
<vehicle id="N2S71" type="standard_car" route="N2S" depart="351.830189496561" departLane="random" departSpeed="10" />
<vehicle id="N2S72" type="standard_car" route="N2S" depart="366.37596319554945" departLane="random" departSpeed="10" />
<vehicle id="S2E73" type="standard_car" route="S2E" depart="366.9800180652823" departLane="random" departSpeed="10" />
<vehicle id="E2N74" type="standard_car" route="E2N" depart="400.0" departLane="random" departSpeed="10" />
</routes>
