<?xml version="1.0" encoding="UTF-8"?>

            <routes xmlns:xsi="http://www.w3.org/2001/XMLSchema-instance">
                  
            <vType accel="1.0" decel="4.5" id="standard_car" length="5.0" minGap="2.5" maxSpeed="25" sigma="0.5" />) 
            
            <route id="N2W" edges="-125514711 125514713"/>
            <route id="N2S" edges="-125514711 -125514709"/>
            <route id="N2E" edges="-125514711 -548975769"/>     
            <route id="W2N" edges="-125514713 125514711"/>
            <route id="W2E" edges="-125514713 -548975769"/>
            <route id="W2S" edges="-125514711 -125514709"/>
            <route id="S2W" edges="125514709 125514713"/>
            <route id="S2N" edges="125514709 125514711"/>
            <route id="S2E" edges="-125514711 -548975769"/>
            <route id="E2S" edges="548975769 -125514709"/>
            <route id="E2W" edges="548975769 125514713"/>
            <route id="E2N" edges="548975769 125514711"/>
            
<vehicle id="E2W0" type="standard_car" route="E2W" depart="4.458872463801983" departLane="random" departSpeed="10" />
<vehicle id="W2N1" type="standard_car" route="W2N" depart="7.651168879795857" departLane="random" departSpeed="10" />
<vehicle id="N2E2" type="standard_car" route="N2E" depart="10.892016245180345" departLane="random" departSpeed="10" />
<vehicle id="S2W3" type="standard_car" route="S2W" depart="14.796356763329749" departLane="random" departSpeed="10" />
<vehicle id="E2N4" type="standard_car" route="E2N" depart="15.043666203090483" departLane="random" departSpeed="10" />
<vehicle id="W2S5" type="standard_car" route="W2S" depart="18.1978281768597" departLane="random" departSpeed="10" />
<vehicle id="S2N6" type="standard_car" route="S2N" depart="18.33864331325764" departLane="random" departSpeed="10" />
<vehicle id="W2N7" type="standard_car" route="W2N" depart="21.196439088098114" departLane="random" departSpeed="10" />
<vehicle id="N2W8" type="standard_car" route="N2W" depart="21.45405721476944" departLane="random" departSpeed="10" />
<vehicle id="S2E9" type="standard_car" route="S2E" depart="21.603687984777157" departLane="random" departSpeed="10" />
<vehicle id="S2N10" type="standard_car" route="S2N" depart="21.63200953291405" departLane="random" departSpeed="10" />
<vehicle id="S2W11" type="standard_car" route="S2W" depart="21.946657903100565" departLane="random" departSpeed="10" />
<vehicle id="N2E12" type="standard_car" route="N2E" depart="23.556340284831965" departLane="random" departSpeed="10" />
<vehicle id="E2N13" type="standard_car" route="E2N" depart="24.0979252346606" departLane="random" departSpeed="10" />
<vehicle id="W2N14" type="standard_car" route="W2N" depart="24.499862891477285" departLane="random" departSpeed="10" />
<vehicle id="S2N15" type="standard_car" route="S2N" depart="24.763959018630434" departLane="random" departSpeed="10" />
<vehicle id="E2W16" type="standard_car" route="E2W" depart="25.496699276388473" departLane="random" departSpeed="10" />
<vehicle id="N2W17" type="standard_car" route="N2W" depart="27.613306648540608" departLane="random" departSpeed="10" />
<vehicle id="N2W18" type="standard_car" route="N2W" depart="27.910673926589496" departLane="random" departSpeed="10" />
<vehicle id="E2S19" type="standard_car" route="E2S" depart="28.298372761488732" departLane="random" departSpeed="10" />
<vehicle id="E2N20" type="standard_car" route="E2N" depart="30.103377460643653" departLane="random" departSpeed="10" />
<vehicle id="W2N21" type="standard_car" route="W2N" depart="30.896058219289134" departLane="random" departSpeed="10" />
<vehicle id="S2N22" type="standard_car" route="S2N" depart="31.822966674709985" departLane="random" departSpeed="10" />
<vehicle id="S2E23" type="standard_car" route="S2E" depart="32.21938949322649" departLane="random" departSpeed="10" />
<vehicle id="S2E24" type="standard_car" route="S2E" depart="32.87500949690788" departLane="random" departSpeed="10" />
<vehicle id="W2E25" type="standard_car" route="W2E" depart="33.304312283178064" departLane="random" departSpeed="10" />
<vehicle id="S2W26" type="standard_car" route="S2W" depart="33.99547997439248" departLane="random" departSpeed="10" />
<vehicle id="W2E27" type="standard_car" route="W2E" depart="34.14477229836808" departLane="random" departSpeed="10" />
<vehicle id="W2E28" type="standard_car" route="W2E" depart="34.35303039226248" departLane="random" departSpeed="10" />
<vehicle id="E2N29" type="standard_car" route="E2N" depart="34.552035175131294" departLane="random" departSpeed="10" />
<vehicle id="N2E30" type="standard_car" route="N2E" depart="36.414858219637715" departLane="random" departSpeed="10" />
<vehicle id="W2E31" type="standard_car" route="W2E" depart="36.428234993884296" departLane="random" departSpeed="10" />
<vehicle id="E2N32" type="standard_car" route="E2N" depart="36.616472636533054" departLane="random" departSpeed="10" />
<vehicle id="E2N33" type="standard_car" route="E2N" depart="37.406402686525794" departLane="random" departSpeed="10" />
<vehicle id="W2N34" type="standard_car" route="W2N" depart="37.70342399314596" departLane="random" departSpeed="10" />
<vehicle id="E2N35" type="standard_car" route="E2N" depart="38.0793386315987" departLane="random" departSpeed="10" />
<vehicle id="W2S36" type="standard_car" route="W2S" depart="38.80842357966719" departLane="random" departSpeed="10" />
<vehicle id="S2W37" type="standard_car" route="S2W" depart="39.13256183887544" departLane="random" departSpeed="10" />
<vehicle id="N2W38" type="standard_car" route="N2W" depart="39.334975483112466" departLane="random" departSpeed="10" />
<vehicle id="E2S39" type="standard_car" route="E2S" depart="39.95864457597042" departLane="random" departSpeed="10" />
<vehicle id="S2N40" type="standard_car" route="S2N" depart="40.2689471795559" departLane="random" departSpeed="10" />
<vehicle id="S2E41" type="standard_car" route="S2E" depart="40.493877015396144" departLane="random" departSpeed="10" />
<vehicle id="E2S42" type="standard_car" route="E2S" depart="41.58160613307519" departLane="random" departSpeed="10" />
<vehicle id="S2E43" type="standard_car" route="S2E" depart="41.66278015386465" departLane="random" departSpeed="10" />
<vehicle id="N2E44" type="standard_car" route="N2E" depart="42.66669987026765" departLane="random" departSpeed="10" />
<vehicle id="S2E45" type="standard_car" route="S2E" depart="43.62543797615067" departLane="random" departSpeed="10" />
<vehicle id="E2N46" type="standard_car" route="E2N" depart="44.157540098399224" departLane="random" departSpeed="10" />
<vehicle id="S2E47" type="standard_car" route="S2E" depart="44.40248232978244" departLane="random" departSpeed="10" />
<vehicle id="S2E48" type="standard_car" route="S2E" depart="44.46101270820392" departLane="random" departSpeed="10" />
<vehicle id="N2S49" type="standard_car" route="N2S" depart="44.579263115476536" departLane="random" departSpeed="10" />
<vehicle id="W2S50" type="standard_car" route="W2S" depart="45.084808852959576" departLane="random" departSpeed="10" />
<vehicle id="W2E51" type="standard_car" route="W2E" depart="45.654506583879495" departLane="random" departSpeed="10" />
<vehicle id="S2E52" type="standard_car" route="S2E" depart="45.70217381633044" departLane="random" departSpeed="10" />
<vehicle id="S2W53" type="standard_car" route="S2W" depart="45.864268041114954" departLane="random" departSpeed="10" />
<vehicle id="N2W54" type="standard_car" route="N2W" depart="46.566267212333365" departLane="random" departSpeed="10" />
<vehicle id="E2N55" type="standard_car" route="E2N" depart="46.63447199455818" departLane="random" departSpeed="10" />
<vehicle id="N2S56" type="standard_car" route="N2S" depart="46.96960554167328" departLane="random" departSpeed="10" />
<vehicle id="S2W57" type="standard_car" route="S2W" depart="48.66578130022692" departLane="random" departSpeed="10" />
<vehicle id="N2W58" type="standard_car" route="N2W" depart="48.68921443406683" departLane="random" departSpeed="10" />
<vehicle id="W2E59" type="standard_car" route="W2E" depart="48.73571034823763" departLane="random" departSpeed="10" />
<vehicle id="N2W60" type="standard_car" route="N2W" depart="48.79976561384636" departLane="random" departSpeed="10" />
<vehicle id="W2E61" type="standard_car" route="W2E" depart="52.42490985538717" departLane="random" departSpeed="10" />
<vehicle id="S2W62" type="standard_car" route="S2W" depart="52.58380395610842" departLane="random" departSpeed="10" />
<vehicle id="S2E63" type="standard_car" route="S2E" depart="52.63875793692048" departLane="random" departSpeed="10" />
<vehicle id="S2N64" type="standard_car" route="S2N" depart="53.51971408979631" departLane="random" departSpeed="10" />
<vehicle id="E2S65" type="standard_car" route="E2S" depart="54.65132626200726" departLane="random" departSpeed="10" />
<vehicle id="N2S66" type="standard_car" route="N2S" depart="54.81297823301223" departLane="random" departSpeed="10" />
<vehicle id="N2S67" type="standard_car" route="N2S" depart="55.241751791071906" departLane="random" departSpeed="10" />
<vehicle id="S2W68" type="standard_car" route="S2W" depart="55.25687084736054" departLane="random" departSpeed="10" />
<vehicle id="W2N69" type="standard_car" route="W2N" depart="55.34659574018803" departLane="random" departSpeed="10" />
<vehicle id="W2N70" type="standard_car" route="W2N" depart="55.601761085782876" departLane="random" departSpeed="10" />
<vehicle id="E2W71" type="standard_car" route="E2W" depart="55.60747610875653" departLane="random" departSpeed="10" />
<vehicle id="E2N72" type="standard_car" route="E2N" depart="56.040735942350075" departLane="random" departSpeed="10" />
<vehicle id="N2W73" type="standard_car" route="N2W" depart="56.950297844733676" departLane="random" departSpeed="10" />
<vehicle id="W2N74" type="standard_car" route="W2N" depart="57.22058030691357" departLane="random" departSpeed="10" />
<vehicle id="N2E75" type="standard_car" route="N2E" depart="57.48774616795538" departLane="random" departSpeed="10" />
<vehicle id="W2N76" type="standard_car" route="W2N" depart="57.69441399174139" departLane="random" departSpeed="10" />
<vehicle id="S2N77" type="standard_car" route="S2N" depart="58.75027602940362" departLane="random" departSpeed="10" />
<vehicle id="N2E78" type="standard_car" route="N2E" depart="59.010360993303955" departLane="random" departSpeed="10" />
<vehicle id="W2S79" type="standard_car" route="W2S" depart="59.50609904263954" departLane="random" departSpeed="10" />
<vehicle id="N2E80" type="standard_car" route="N2E" depart="59.94748234497148" departLane="random" departSpeed="10" />
<vehicle id="W2N81" type="standard_car" route="W2N" depart="60.3047275275582" departLane="random" departSpeed="10" />
<vehicle id="W2S82" type="standard_car" route="W2S" depart="60.41826598040614" departLane="random" departSpeed="10" />
<vehicle id="W2S83" type="standard_car" route="W2S" depart="61.17174362736883" departLane="random" departSpeed="10" />
<vehicle id="N2S84" type="standard_car" route="N2S" depart="61.387124937078575" departLane="random" departSpeed="10" />
<vehicle id="S2W85" type="standard_car" route="S2W" depart="62.51036217380279" departLane="random" departSpeed="10" />
<vehicle id="S2W86" type="standard_car" route="S2W" depart="63.79021030599158" departLane="random" departSpeed="10" />
<vehicle id="W2S87" type="standard_car" route="W2S" depart="65.68640116407049" departLane="random" departSpeed="10" />
<vehicle id="E2W88" type="standard_car" route="E2W" depart="66.01377448498116" departLane="random" departSpeed="10" />
<vehicle id="N2E89" type="standard_car" route="N2E" depart="66.13496500468142" departLane="random" departSpeed="10" />
<vehicle id="W2E90" type="standard_car" route="W2E" depart="66.21746491026167" departLane="random" departSpeed="10" />
<vehicle id="S2E91" type="standard_car" route="S2E" depart="66.33897315779265" departLane="random" departSpeed="10" />
<vehicle id="N2W92" type="standard_car" route="N2W" depart="67.10364659300173" departLane="random" departSpeed="10" />
<vehicle id="W2E93" type="standard_car" route="W2E" depart="67.47397634694732" departLane="random" departSpeed="10" />
<vehicle id="S2E94" type="standard_car" route="S2E" depart="68.2025962491452" departLane="random" departSpeed="10" />
<vehicle id="W2N95" type="standard_car" route="W2N" depart="69.19234651681671" departLane="random" departSpeed="10" />
<vehicle id="N2W96" type="standard_car" route="N2W" depart="70.1382471620093" departLane="random" departSpeed="10" />
<vehicle id="E2S97" type="standard_car" route="E2S" depart="71.06214555677586" departLane="random" departSpeed="10" />
<vehicle id="W2N98" type="standard_car" route="W2N" depart="71.93197636396684" departLane="random" departSpeed="10" />
<vehicle id="S2E99" type="standard_car" route="S2E" depart="72.50338222374594" departLane="random" departSpeed="10" />
<vehicle id="E2S100" type="standard_car" route="E2S" depart="72.84729167459459" departLane="random" departSpeed="10" />
<vehicle id="W2N101" type="standard_car" route="W2N" depart="72.86377098495419" departLane="random" departSpeed="10" />
<vehicle id="N2S102" type="standard_car" route="N2S" depart="73.92831471395196" departLane="random" departSpeed="10" />
<vehicle id="S2E103" type="standard_car" route="S2E" depart="74.17777838025444" departLane="random" departSpeed="10" />
<vehicle id="N2E104" type="standard_car" route="N2E" depart="74.27705984384991" departLane="random" departSpeed="10" />
<vehicle id="N2W105" type="standard_car" route="N2W" depart="74.7937761247288" departLane="random" departSpeed="10" />
<vehicle id="W2S106" type="standard_car" route="W2S" depart="74.9003952261111" departLane="random" departSpeed="10" />
<vehicle id="N2W107" type="standard_car" route="N2W" depart="75.13679283187578" departLane="random" departSpeed="10" />
<vehicle id="W2N108" type="standard_car" route="W2N" depart="75.69613132046003" departLane="random" departSpeed="10" />
<vehicle id="W2S109" type="standard_car" route="W2S" depart="76.18836448801831" departLane="random" departSpeed="10" />
<vehicle id="N2W110" type="standard_car" route="N2W" depart="77.12305264064118" departLane="random" departSpeed="10" />
<vehicle id="E2W111" type="standard_car" route="E2W" depart="77.35468088777476" departLane="random" departSpeed="10" />
<vehicle id="S2W112" type="standard_car" route="S2W" depart="78.94864464501818" departLane="random" departSpeed="10" />
<vehicle id="E2W113" type="standard_car" route="E2W" depart="79.29698665625645" departLane="random" departSpeed="10" />
<vehicle id="N2W114" type="standard_car" route="N2W" depart="79.68314784379712" departLane="random" departSpeed="10" />
<vehicle id="W2S115" type="standard_car" route="W2S" depart="80.27321257369938" departLane="random" departSpeed="10" />
<vehicle id="N2E116" type="standard_car" route="N2E" depart="80.5457987080831" departLane="random" departSpeed="10" />
<vehicle id="S2E117" type="standard_car" route="S2E" depart="80.79498300891551" departLane="random" departSpeed="10" />
<vehicle id="N2W118" type="standard_car" route="N2W" depart="81.12237277862387" departLane="random" departSpeed="10" />
<vehicle id="N2W119" type="standard_car" route="N2W" depart="81.72166618556875" departLane="random" departSpeed="10" />
<vehicle id="W2E120" type="standard_car" route="W2E" depart="81.84551801981735" departLane="random" departSpeed="10" />
<vehicle id="W2N121" type="standard_car" route="W2N" depart="82.03815132395931" departLane="random" departSpeed="10" />
<vehicle id="N2W122" type="standard_car" route="N2W" depart="82.1555310410034" departLane="random" departSpeed="10" />
<vehicle id="E2S123" type="standard_car" route="E2S" depart="82.18103765909767" departLane="random" departSpeed="10" />
<vehicle id="E2N124" type="standard_car" route="E2N" depart="82.59776259011545" departLane="random" departSpeed="10" />
<vehicle id="N2E125" type="standard_car" route="N2E" depart="82.94300498366279" departLane="random" departSpeed="10" />
<vehicle id="W2S126" type="standard_car" route="W2S" depart="82.9854948843774" departLane="random" departSpeed="10" />
<vehicle id="N2W127" type="standard_car" route="N2W" depart="83.16001717753217" departLane="random" departSpeed="10" />
<vehicle id="W2S128" type="standard_car" route="W2S" depart="83.68841811896081" departLane="random" departSpeed="10" />
<vehicle id="N2S129" type="standard_car" route="N2S" depart="84.10545723064251" departLane="random" departSpeed="10" />
<vehicle id="N2W130" type="standard_car" route="N2W" depart="84.49153058254338" departLane="random" departSpeed="10" />
<vehicle id="E2S131" type="standard_car" route="E2S" depart="84.74676371226346" departLane="random" departSpeed="10" />
<vehicle id="E2S132" type="standard_car" route="E2S" depart="85.2576679684758" departLane="random" departSpeed="10" />
<vehicle id="W2N133" type="standard_car" route="W2N" depart="86.34404362773847" departLane="random" departSpeed="10" />
<vehicle id="W2N134" type="standard_car" route="W2N" depart="86.53128490199961" departLane="random" departSpeed="10" />
<vehicle id="S2W135" type="standard_car" route="S2W" depart="86.86454965639975" departLane="random" departSpeed="10" />
<vehicle id="E2S136" type="standard_car" route="E2S" depart="87.65129202920583" departLane="random" departSpeed="10" />
<vehicle id="N2W137" type="standard_car" route="N2W" depart="87.7870253235665" departLane="random" departSpeed="10" />
<vehicle id="W2S138" type="standard_car" route="W2S" depart="88.1071374644689" departLane="random" departSpeed="10" />
<vehicle id="W2N139" type="standard_car" route="W2N" depart="88.1900033680427" departLane="random" departSpeed="10" />
<vehicle id="W2S140" type="standard_car" route="W2S" depart="88.83200447757592" departLane="random" departSpeed="10" />
<vehicle id="W2E141" type="standard_car" route="W2E" depart="90.10195544736892" departLane="random" departSpeed="10" />
<vehicle id="S2E142" type="standard_car" route="S2E" depart="90.2880746399794" departLane="random" departSpeed="10" />
<vehicle id="S2N143" type="standard_car" route="S2N" depart="91.34030343313083" departLane="random" departSpeed="10" />
<vehicle id="N2S144" type="standard_car" route="N2S" depart="91.76055497304037" departLane="random" departSpeed="10" />
<vehicle id="E2N145" type="standard_car" route="E2N" depart="92.04200330062491" departLane="random" departSpeed="10" />
<vehicle id="N2E146" type="standard_car" route="N2E" depart="92.35351452290577" departLane="random" departSpeed="10" />
<vehicle id="N2S147" type="standard_car" route="N2S" depart="92.49675423236907" departLane="random" departSpeed="10" />
<vehicle id="S2E148" type="standard_car" route="S2E" depart="93.49699372742563" departLane="random" departSpeed="10" />
<vehicle id="E2W149" type="standard_car" route="E2W" depart="93.71675620962282" departLane="random" departSpeed="10" />
<vehicle id="N2E150" type="standard_car" route="N2E" depart="94.94857811897127" departLane="random" departSpeed="10" />
<vehicle id="E2W151" type="standard_car" route="E2W" depart="97.16218070181662" departLane="random" departSpeed="10" />
<vehicle id="W2E152" type="standard_car" route="W2E" depart="97.45779962607283" departLane="random" departSpeed="10" />
<vehicle id="W2S153" type="standard_car" route="W2S" depart="97.83728496108957" departLane="random" departSpeed="10" />
<vehicle id="W2N154" type="standard_car" route="W2N" depart="98.68023002745433" departLane="random" departSpeed="10" />
<vehicle id="W2S155" type="standard_car" route="W2S" depart="98.78468467605607" departLane="random" departSpeed="10" />
<vehicle id="N2E156" type="standard_car" route="N2E" depart="98.87429392710439" departLane="random" departSpeed="10" />
<vehicle id="E2W157" type="standard_car" route="E2W" depart="99.574250417511" departLane="random" departSpeed="10" />
<vehicle id="N2E158" type="standard_car" route="N2E" depart="99.64281871391688" departLane="random" departSpeed="10" />
<vehicle id="W2N159" type="standard_car" route="W2N" depart="101.37405978228082" departLane="random" departSpeed="10" />
<vehicle id="S2N160" type="standard_car" route="S2N" depart="101.93909615672602" departLane="random" departSpeed="10" />
<vehicle id="N2S161" type="standard_car" route="N2S" depart="102.18063348761548" departLane="random" departSpeed="10" />
<vehicle id="S2E162" type="standard_car" route="S2E" depart="103.84832415601213" departLane="random" departSpeed="10" />
<vehicle id="S2N163" type="standard_car" route="S2N" depart="106.22924218740557" departLane="random" departSpeed="10" />
<vehicle id="W2S164" type="standard_car" route="W2S" depart="108.00998703272401" departLane="random" departSpeed="10" />
<vehicle id="E2S165" type="standard_car" route="E2S" depart="108.43226025306694" departLane="random" departSpeed="10" />
<vehicle id="N2S166" type="standard_car" route="N2S" depart="108.51479596828797" departLane="random" departSpeed="10" />
<vehicle id="W2N167" type="standard_car" route="W2N" depart="109.06628659538033" departLane="random" departSpeed="10" />
<vehicle id="S2W168" type="standard_car" route="S2W" depart="110.38910291652189" departLane="random" departSpeed="10" />
<vehicle id="S2W169" type="standard_car" route="S2W" depart="111.06137053046187" departLane="random" departSpeed="10" />
<vehicle id="E2S170" type="standard_car" route="E2S" depart="115.35636892842602" departLane="random" departSpeed="10" />
<vehicle id="E2S171" type="standard_car" route="E2S" depart="116.74247186585556" departLane="random" departSpeed="10" />
<vehicle id="W2S172" type="standard_car" route="W2S" depart="116.74699072661969" departLane="random" departSpeed="10" />
<vehicle id="N2E173" type="standard_car" route="N2E" depart="116.7891526249197" departLane="random" departSpeed="10" />
<vehicle id="N2W174" type="standard_car" route="N2W" depart="117.31006082833007" departLane="random" departSpeed="10" />
<vehicle id="E2N175" type="standard_car" route="E2N" depart="118.98704083581544" departLane="random" departSpeed="10" />
<vehicle id="W2S176" type="standard_car" route="W2S" depart="119.28920694362475" departLane="random" departSpeed="10" />
<vehicle id="E2W177" type="standard_car" route="E2W" depart="123.8030353447512" departLane="random" departSpeed="10" />
<vehicle id="E2S178" type="standard_car" route="E2S" depart="124.70571936511772" departLane="random" departSpeed="10" />
<vehicle id="N2E179" type="standard_car" route="N2E" depart="124.82249103349616" departLane="random" departSpeed="10" />
<vehicle id="W2S180" type="standard_car" route="W2S" depart="124.90125934452816" departLane="random" departSpeed="10" />
<vehicle id="S2W181" type="standard_car" route="S2W" depart="125.24515259097578" departLane="random" departSpeed="10" />
<vehicle id="W2S182" type="standard_car" route="W2S" depart="128.35288135041276" departLane="random" departSpeed="10" />
<vehicle id="W2S183" type="standard_car" route="W2S" depart="131.12348171977067" departLane="random" departSpeed="10" />
<vehicle id="S2E184" type="standard_car" route="S2E" depart="131.93836381608085" departLane="random" departSpeed="10" />
<vehicle id="E2W185" type="standard_car" route="E2W" depart="132.48573263893715" departLane="random" departSpeed="10" />
<vehicle id="N2W186" type="standard_car" route="N2W" depart="135.78282611960782" departLane="random" departSpeed="10" />
<vehicle id="W2N187" type="standard_car" route="W2N" depart="142.4252667564022" departLane="random" departSpeed="10" />
<vehicle id="W2N188" type="standard_car" route="W2N" depart="143.1684929409139" departLane="random" departSpeed="10" />
<vehicle id="W2N189" type="standard_car" route="W2N" depart="144.12281121783823" departLane="random" departSpeed="10" />
<vehicle id="N2W190" type="standard_car" route="N2W" depart="149.63219276748367" departLane="random" departSpeed="10" />
<vehicle id="E2W191" type="standard_car" route="E2W" depart="156.63417480237848" departLane="random" departSpeed="10" />
<vehicle id="N2W192" type="standard_car" route="N2W" depart="162.03288100592042" departLane="random" departSpeed="10" />
<vehicle id="N2W193" type="standard_car" route="N2W" depart="166.12723530405694" departLane="random" departSpeed="10" />
<vehicle id="N2W194" type="standard_car" route="N2W" depart="166.57752875387527" departLane="random" departSpeed="10" />
<vehicle id="E2N195" type="standard_car" route="E2N" depart="200.0" departLane="random" departSpeed="10" />
</routes>
