<?xml version="1.0" encoding="UTF-8"?>

            <routes xmlns:xsi="http://www.w3.org/2001/XMLSchema-instance">
   
            <vType accel="1.0" decel="4.5" id="standard_car" length="5.0" minGap="2.5" maxSpeed="25" sigma="0.5" />) 
            
            <route id="N2W" edges="-125514711 125514713"/>
            <route id="N2S" edges="-125514711 -125514709"/>
            <route id="N2E" edges="-125514711 -548975769"/>     
            <route id="W2N" edges="-125514713 125514711"/>
            <route id="W2E" edges="-125514713 -548975769"/>
            <route id="W2S" edges="-125514711 -125514709"/>
            <route id="S2W" edges="125514709 125514713"/>
            <route id="S2N" edges="125514709 125514711"/>
            <route id="S2E" edges="-125514711 -548975769"/>
            <route id="E2S" edges="548975769 -125514709"/>
            <route id="E2W" edges="548975769 125514713"/>
            <route id="E2N" edges="548975769 125514711"/>
            
<vehicle id="S2E0" type="standard_car" route="S2E" depart="20.507963540952346" departLane="random" departSpeed="10" />
<vehicle id="N2E1" type="standard_car" route="N2E" depart="23.558449607416573" departLane="random" departSpeed="10" />
<vehicle id="N2S2" type="standard_car" route="N2S" depart="36.274328669292736" departLane="random" departSpeed="10" />
<vehicle id="S2N3" type="standard_car" route="S2N" depart="45.13694237053745" departLane="random" departSpeed="10" />
<vehicle id="W2N4" type="standard_car" route="W2N" depart="45.61842155514898" departLane="random" departSpeed="10" />
<vehicle id="E2W5" type="standard_car" route="E2W" depart="51.410936799084595" departLane="random" departSpeed="10" />
<vehicle id="N2S6" type="standard_car" route="N2S" depart="52.35054252472524" departLane="random" departSpeed="10" />
<vehicle id="E2W7" type="standard_car" route="E2W" depart="59.9444596005899" departLane="random" departSpeed="10" />
<vehicle id="S2N8" type="standard_car" route="S2N" depart="60.7142463344173" departLane="random" departSpeed="10" />
<vehicle id="N2S9" type="standard_car" route="N2S" depart="68.62572254900938" departLane="random" departSpeed="10" />
<vehicle id="E2W10" type="standard_car" route="E2W" depart="68.78070709506363" departLane="random" departSpeed="10" />
<vehicle id="N2S11" type="standard_car" route="N2S" depart="69.93958267006907" departLane="random" departSpeed="10" />
<vehicle id="N2S12" type="standard_car" route="N2S" depart="72.33592759434005" departLane="random" departSpeed="10" />
<vehicle id="S2N13" type="standard_car" route="S2N" depart="86.68954134699835" departLane="random" departSpeed="10" />
<vehicle id="W2E14" type="standard_car" route="W2E" depart="87.29746438835451" departLane="random" departSpeed="10" />
<vehicle id="E2N15" type="standard_car" route="E2N" depart="87.90393813584359" departLane="random" departSpeed="10" />
<vehicle id="S2N16" type="standard_car" route="S2N" depart="88.68468643037563" departLane="random" departSpeed="10" />
<vehicle id="E2W17" type="standard_car" route="E2W" depart="93.17515656010406" departLane="random" departSpeed="10" />
<vehicle id="N2S18" type="standard_car" route="N2S" depart="93.3121951244267" departLane="random" departSpeed="10" />
<vehicle id="E2W19" type="standard_car" route="E2W" depart="93.36313414285185" departLane="random" departSpeed="10" />
<vehicle id="S2N20" type="standard_car" route="S2N" depart="93.73869219071216" departLane="random" departSpeed="10" />
<vehicle id="S2N21" type="standard_car" route="S2N" depart="96.23402801356755" departLane="random" departSpeed="10" />
<vehicle id="S2N22" type="standard_car" route="S2N" depart="100.27779532730676" departLane="random" departSpeed="10" />
<vehicle id="W2S23" type="standard_car" route="W2S" depart="100.60554282475671" departLane="random" departSpeed="10" />
<vehicle id="S2N24" type="standard_car" route="S2N" depart="100.6788712474558" departLane="random" departSpeed="10" />
<vehicle id="E2W25" type="standard_car" route="E2W" depart="100.96774019315151" departLane="random" departSpeed="10" />
<vehicle id="E2S26" type="standard_car" route="E2S" depart="101.89558586094638" departLane="random" departSpeed="10" />
<vehicle id="S2W27" type="standard_car" route="S2W" depart="108.6182913872595" departLane="random" departSpeed="10" />
<vehicle id="E2N28" type="standard_car" route="E2N" depart="108.79774269721648" departLane="random" departSpeed="10" />
<vehicle id="W2S29" type="standard_car" route="W2S" depart="110.30101064915641" departLane="random" departSpeed="10" />
<vehicle id="S2W30" type="standard_car" route="S2W" depart="113.09888153008932" departLane="random" departSpeed="10" />
<vehicle id="E2W31" type="standard_car" route="E2W" depart="113.57964392354675" departLane="random" departSpeed="10" />
<vehicle id="E2N32" type="standard_car" route="E2N" depart="117.13734215066029" departLane="random" departSpeed="10" />
<vehicle id="S2N33" type="standard_car" route="S2N" depart="120.67833048988942" departLane="random" departSpeed="10" />
<vehicle id="W2E34" type="standard_car" route="W2E" depart="123.36655636400138" departLane="random" departSpeed="10" />
<vehicle id="N2S35" type="standard_car" route="N2S" depart="124.71405431499214" departLane="random" departSpeed="10" />
<vehicle id="S2N36" type="standard_car" route="S2N" depart="129.72725302085266" departLane="random" departSpeed="10" />
<vehicle id="E2W37" type="standard_car" route="E2W" depart="131.41204644193934" departLane="random" departSpeed="10" />
<vehicle id="S2N38" type="standard_car" route="S2N" depart="135.74739767816365" departLane="random" departSpeed="10" />
<vehicle id="E2W39" type="standard_car" route="E2W" depart="138.2400454148713" departLane="random" departSpeed="10" />
<vehicle id="S2W40" type="standard_car" route="S2W" depart="139.67872735130032" departLane="random" departSpeed="10" />
<vehicle id="W2E41" type="standard_car" route="W2E" depart="140.7214849673795" departLane="random" departSpeed="10" />
<vehicle id="N2S42" type="standard_car" route="N2S" depart="141.3373687214084" departLane="random" departSpeed="10" />
<vehicle id="N2W43" type="standard_car" route="N2W" depart="143.94438892924774" departLane="random" departSpeed="10" />
<vehicle id="S2E44" type="standard_car" route="S2E" depart="145.22033120864378" departLane="random" departSpeed="10" />
<vehicle id="S2N45" type="standard_car" route="S2N" depart="150.20871414148465" departLane="random" departSpeed="10" />
<vehicle id="S2E46" type="standard_car" route="S2E" depart="160.27654490983764" departLane="random" departSpeed="10" />
<vehicle id="W2N47" type="standard_car" route="W2N" depart="160.6137518533481" departLane="random" departSpeed="10" />
<vehicle id="N2E48" type="standard_car" route="N2E" depart="162.33086224684476" departLane="random" departSpeed="10" />
<vehicle id="N2S49" type="standard_car" route="N2S" depart="162.6631176564643" departLane="random" departSpeed="10" />
<vehicle id="W2N50" type="standard_car" route="W2N" depart="187.42669442085239" departLane="random" departSpeed="10" />
<vehicle id="W2E51" type="standard_car" route="W2E" depart="189.036003837698" departLane="random" departSpeed="10" />
<vehicle id="S2N52" type="standard_car" route="S2N" depart="191.28343770674357" departLane="random" departSpeed="10" />
<vehicle id="E2W53" type="standard_car" route="E2W" depart="200.02682584995517" departLane="random" departSpeed="10" />
<vehicle id="W2E54" type="standard_car" route="W2E" depart="200.81560578257148" departLane="random" departSpeed="10" />
<vehicle id="N2S55" type="standard_car" route="N2S" depart="204.20928051812052" departLane="random" departSpeed="10" />
<vehicle id="N2S56" type="standard_car" route="N2S" depart="206.85777262286058" departLane="random" departSpeed="10" />
<vehicle id="E2W57" type="standard_car" route="E2W" depart="211.21004377332048" departLane="random" departSpeed="10" />
<vehicle id="S2N58" type="standard_car" route="S2N" depart="212.59655242634216" departLane="random" departSpeed="10" />
<vehicle id="E2W59" type="standard_car" route="E2W" depart="215.949601927333" departLane="random" departSpeed="10" />
<vehicle id="E2W60" type="standard_car" route="E2W" depart="218.20021522880094" departLane="random" departSpeed="10" />
<vehicle id="S2N61" type="standard_car" route="S2N" depart="220.83707142341152" departLane="random" departSpeed="10" />
<vehicle id="W2E62" type="standard_car" route="W2E" depart="221.04757575535476" departLane="random" departSpeed="10" />
<vehicle id="S2E63" type="standard_car" route="S2E" depart="224.83657261330075" departLane="random" departSpeed="10" />
<vehicle id="S2W64" type="standard_car" route="S2W" depart="228.54434049615026" departLane="random" departSpeed="10" />
<vehicle id="S2N65" type="standard_car" route="S2N" depart="230.39159089336522" departLane="random" departSpeed="10" />
<vehicle id="W2S66" type="standard_car" route="W2S" depart="242.60426822040895" departLane="random" departSpeed="10" />
<vehicle id="S2N67" type="standard_car" route="S2N" depart="251.82934278442048" departLane="random" departSpeed="10" />
<vehicle id="E2W68" type="standard_car" route="E2W" depart="252.36727934507707" departLane="random" departSpeed="10" />
<vehicle id="N2S69" type="standard_car" route="N2S" depart="254.26570185809894" departLane="random" departSpeed="10" />
<vehicle id="E2W70" type="standard_car" route="E2W" depart="254.68403672520813" departLane="random" departSpeed="10" />
<vehicle id="N2S71" type="standard_car" route="N2S" depart="273.8522634183022" departLane="random" departSpeed="10" />
<vehicle id="W2E72" type="standard_car" route="W2E" depart="278.5511758070109" departLane="random" departSpeed="10" />
<vehicle id="S2E73" type="standard_car" route="S2E" depart="280.44263387260014" departLane="random" departSpeed="10" />
<vehicle id="N2E74" type="standard_car" route="N2E" depart="281.61024248764875" departLane="random" departSpeed="10" />
<vehicle id="E2S75" type="standard_car" route="E2S" depart="285.1029097715748" departLane="random" departSpeed="10" />
<vehicle id="E2W76" type="standard_car" route="E2W" depart="286.8522234560611" departLane="random" departSpeed="10" />
<vehicle id="E2W77" type="standard_car" route="E2W" depart="293.3021144294964" departLane="random" departSpeed="10" />
<vehicle id="N2S78" type="standard_car" route="N2S" depart="293.91241410764326" departLane="random" departSpeed="10" />
<vehicle id="N2S79" type="standard_car" route="N2S" depart="296.0153536174881" departLane="random" departSpeed="10" />
<vehicle id="W2E80" type="standard_car" route="W2E" depart="299.0826801699828" departLane="random" departSpeed="10" />
<vehicle id="N2S81" type="standard_car" route="N2S" depart="302.84628642494545" departLane="random" departSpeed="10" />
<vehicle id="W2E82" type="standard_car" route="W2E" depart="302.8895055853166" departLane="random" departSpeed="10" />
<vehicle id="W2E83" type="standard_car" route="W2E" depart="308.3405795769058" departLane="random" departSpeed="10" />
<vehicle id="N2S84" type="standard_car" route="N2S" depart="316.8514895931475" departLane="random" departSpeed="10" />
<vehicle id="E2W85" type="standard_car" route="E2W" depart="332.1485979688757" departLane="random" departSpeed="10" />
<vehicle id="E2S86" type="standard_car" route="E2S" depart="336.7191464057273" departLane="random" departSpeed="10" />
<vehicle id="N2S87" type="standard_car" route="N2S" depart="337.12700770641874" departLane="random" departSpeed="10" />
<vehicle id="N2S88" type="standard_car" route="N2S" depart="340.5731086778647" departLane="random" departSpeed="10" />
<vehicle id="N2E89" type="standard_car" route="N2E" depart="342.57257126006846" departLane="random" departSpeed="10" />
<vehicle id="N2S90" type="standard_car" route="N2S" depart="343.94246323451597" departLane="random" departSpeed="10" />
<vehicle id="S2E91" type="standard_car" route="S2E" depart="344.4038333409949" departLane="random" departSpeed="10" />
<vehicle id="E2S92" type="standard_car" route="E2S" depart="348.0785835443774" departLane="random" departSpeed="10" />
<vehicle id="W2E93" type="standard_car" route="W2E" depart="350.01739131483635" departLane="random" departSpeed="10" />
<vehicle id="W2E94" type="standard_car" route="W2E" depart="352.61782854310763" departLane="random" departSpeed="10" />
<vehicle id="S2N95" type="standard_car" route="S2N" depart="358.2496159949013" departLane="random" departSpeed="10" />
<vehicle id="E2S96" type="standard_car" route="E2S" depart="359.41999640700044" departLane="random" departSpeed="10" />
<vehicle id="W2N97" type="standard_car" route="W2N" depart="417.5570375858397" departLane="random" departSpeed="10" />
<vehicle id="S2N98" type="standard_car" route="S2N" depart="466.85665530091666" departLane="random" departSpeed="10" />
<vehicle id="N2S99" type="standard_car" route="N2S" depart="500.0" departLane="random" departSpeed="10" />
</routes>
