<?xml version="1.0" encoding="UTF-8"?>

            <routes xmlns:xsi="http://www.w3.org/2001/XMLSchema-instance">
   
            <vType accel="1.0" decel="4.5" id="standard_car" length="5.0" minGap="2.5" maxSpeed="25" sigma="0.5" />) 
            
            <route id="N2W" edges="-125514711 125514713"/>
            <route id="N2S" edges="-125514711 -125514709"/>
            <route id="N2E" edges="-125514711 -548975769"/>     
            <route id="W2N" edges="-125514713 125514711"/>
            <route id="W2E" edges="-125514713 -548975769"/>
            <route id="W2S" edges="-125514711 -125514709"/>
            <route id="S2W" edges="125514709 125514713"/>
            <route id="S2N" edges="125514709 125514711"/>
            <route id="S2E" edges="-125514711 -548975769"/>
            <route id="E2S" edges="548975769 -125514709"/>
            <route id="E2W" edges="548975769 125514713"/>
            <route id="E2N" edges="548975769 125514711"/>
            
<vehicle id="S2N0" type="standard_car" route="S2N" depart="21.145307387941354" departLane="random" departSpeed="10" />
<vehicle id="W2E1" type="standard_car" route="W2E" depart="30.09993550655265" departLane="random" departSpeed="10" />
<vehicle id="E2W2" type="standard_car" route="E2W" depart="41.51084469172573" departLane="random" departSpeed="10" />
<vehicle id="E2S3" type="standard_car" route="E2S" depart="46.506739688378794" departLane="random" departSpeed="10" />
<vehicle id="N2S4" type="standard_car" route="N2S" depart="50.36492212159923" departLane="random" departSpeed="10" />
<vehicle id="W2E5" type="standard_car" route="W2E" depart="55.28463746717364" departLane="random" departSpeed="10" />
<vehicle id="N2S6" type="standard_car" route="N2S" depart="59.55311942383146" departLane="random" departSpeed="10" />
<vehicle id="N2S7" type="standard_car" route="N2S" depart="69.95041224940414" departLane="random" departSpeed="10" />
<vehicle id="S2E8" type="standard_car" route="S2E" depart="70.24785442083683" departLane="random" departSpeed="10" />
<vehicle id="S2N9" type="standard_car" route="S2N" depart="71.65465829951877" departLane="random" departSpeed="10" />
<vehicle id="S2N10" type="standard_car" route="S2N" depart="73.82091409703597" departLane="random" departSpeed="10" />
<vehicle id="W2E11" type="standard_car" route="W2E" depart="76.80190671638988" departLane="random" departSpeed="10" />
<vehicle id="N2S12" type="standard_car" route="N2S" depart="77.51876278144736" departLane="random" departSpeed="10" />
<vehicle id="N2S13" type="standard_car" route="N2S" depart="81.43066603189708" departLane="random" departSpeed="10" />
<vehicle id="N2S14" type="standard_car" route="N2S" depart="82.42660080502064" departLane="random" departSpeed="10" />
<vehicle id="E2W15" type="standard_car" route="E2W" depart="84.07799835826306" departLane="random" departSpeed="10" />
<vehicle id="N2S16" type="standard_car" route="N2S" depart="84.34684641694038" departLane="random" departSpeed="10" />
<vehicle id="N2S17" type="standard_car" route="N2S" depart="88.27351935011811" departLane="random" departSpeed="10" />
<vehicle id="E2S18" type="standard_car" route="E2S" depart="90.80124241706146" departLane="random" departSpeed="10" />
<vehicle id="S2N19" type="standard_car" route="S2N" depart="93.76868059390851" departLane="random" departSpeed="10" />
<vehicle id="N2W20" type="standard_car" route="N2W" depart="93.77299378799869" departLane="random" departSpeed="10" />
<vehicle id="W2E21" type="standard_car" route="W2E" depart="93.98772072940967" departLane="random" departSpeed="10" />
<vehicle id="N2S22" type="standard_car" route="N2S" depart="96.6382074728679" departLane="random" departSpeed="10" />
<vehicle id="S2E23" type="standard_car" route="S2E" depart="98.58210825564574" departLane="random" departSpeed="10" />
<vehicle id="N2S24" type="standard_car" route="N2S" depart="103.75222975567122" departLane="random" departSpeed="10" />
<vehicle id="S2N25" type="standard_car" route="S2N" depart="106.67258883440766" departLane="random" departSpeed="10" />
<vehicle id="W2S26" type="standard_car" route="W2S" depart="109.36174991608267" departLane="random" departSpeed="10" />
<vehicle id="W2E27" type="standard_car" route="W2E" depart="111.01713586911033" departLane="random" departSpeed="10" />
<vehicle id="W2E28" type="standard_car" route="W2E" depart="112.18680450250321" departLane="random" departSpeed="10" />
<vehicle id="N2S29" type="standard_car" route="N2S" depart="121.44740713632622" departLane="random" departSpeed="10" />
<vehicle id="S2E30" type="standard_car" route="S2E" depart="126.08945671330683" departLane="random" departSpeed="10" />
<vehicle id="N2E31" type="standard_car" route="N2E" depart="130.41026165125257" departLane="random" departSpeed="10" />
<vehicle id="S2N32" type="standard_car" route="S2N" depart="137.66006448472464" departLane="random" departSpeed="10" />
<vehicle id="W2E33" type="standard_car" route="W2E" depart="138.06187111105558" departLane="random" departSpeed="10" />
<vehicle id="S2N34" type="standard_car" route="S2N" depart="140.16544989824118" departLane="random" departSpeed="10" />
<vehicle id="E2N35" type="standard_car" route="E2N" depart="141.22166335447452" departLane="random" departSpeed="10" />
<vehicle id="S2N36" type="standard_car" route="S2N" depart="142.6556912455547" departLane="random" departSpeed="10" />
<vehicle id="W2S37" type="standard_car" route="W2S" depart="149.74113346690822" departLane="random" departSpeed="10" />
<vehicle id="W2E38" type="standard_car" route="W2E" depart="150.01991264278865" departLane="random" departSpeed="10" />
<vehicle id="S2N39" type="standard_car" route="S2N" depart="150.6369521063354" departLane="random" departSpeed="10" />
<vehicle id="E2W40" type="standard_car" route="E2W" depart="153.15051497338666" departLane="random" departSpeed="10" />
<vehicle id="E2W41" type="standard_car" route="E2W" depart="158.2092090303977" departLane="random" departSpeed="10" />
<vehicle id="E2N42" type="standard_car" route="E2N" depart="160.24305072776932" departLane="random" departSpeed="10" />
<vehicle id="W2E43" type="standard_car" route="W2E" depart="168.9903763603441" departLane="random" departSpeed="10" />
<vehicle id="N2S44" type="standard_car" route="N2S" depart="169.12971381490604" departLane="random" departSpeed="10" />
<vehicle id="W2E45" type="standard_car" route="W2E" depart="170.79536302910066" departLane="random" departSpeed="10" />
<vehicle id="S2N46" type="standard_car" route="S2N" depart="170.96599564360457" departLane="random" departSpeed="10" />
<vehicle id="N2S47" type="standard_car" route="N2S" depart="171.5876601022488" departLane="random" departSpeed="10" />
<vehicle id="E2W48" type="standard_car" route="E2W" depart="171.59199803997006" departLane="random" departSpeed="10" />
<vehicle id="E2W49" type="standard_car" route="E2W" depart="175.95816016198722" departLane="random" departSpeed="10" />
<vehicle id="W2E50" type="standard_car" route="W2E" depart="178.87452608607052" departLane="random" departSpeed="10" />
<vehicle id="E2W51" type="standard_car" route="E2W" depart="180.85478860688897" departLane="random" departSpeed="10" />
<vehicle id="N2S52" type="standard_car" route="N2S" depart="188.01166679584406" departLane="random" departSpeed="10" />
<vehicle id="E2S53" type="standard_car" route="E2S" depart="195.62715122103427" departLane="random" departSpeed="10" />
<vehicle id="W2E54" type="standard_car" route="W2E" depart="200.14718512669543" departLane="random" departSpeed="10" />
<vehicle id="N2W55" type="standard_car" route="N2W" depart="205.41547481522647" departLane="random" departSpeed="10" />
<vehicle id="N2S56" type="standard_car" route="N2S" depart="205.76522391408312" departLane="random" departSpeed="10" />
<vehicle id="E2W57" type="standard_car" route="E2W" depart="216.72891161222987" departLane="random" departSpeed="10" />
<vehicle id="N2S58" type="standard_car" route="N2S" depart="217.90990653926886" departLane="random" departSpeed="10" />
<vehicle id="N2S59" type="standard_car" route="N2S" depart="219.8363612590135" departLane="random" departSpeed="10" />
<vehicle id="W2S60" type="standard_car" route="W2S" depart="221.7447496425694" departLane="random" departSpeed="10" />
<vehicle id="W2E61" type="standard_car" route="W2E" depart="235.60131412276698" departLane="random" departSpeed="10" />
<vehicle id="S2N62" type="standard_car" route="S2N" depart="243.23643751790422" departLane="random" departSpeed="10" />
<vehicle id="E2W63" type="standard_car" route="E2W" depart="244.14528679678037" departLane="random" departSpeed="10" />
<vehicle id="S2N64" type="standard_car" route="S2N" depart="248.2481664375489" departLane="random" departSpeed="10" />
<vehicle id="N2S65" type="standard_car" route="N2S" depart="251.5515060369355" departLane="random" departSpeed="10" />
<vehicle id="E2W66" type="standard_car" route="E2W" depart="276.1889639456487" departLane="random" departSpeed="10" />
<vehicle id="W2E67" type="standard_car" route="W2E" depart="301.1669343403495" departLane="random" departSpeed="10" />
<vehicle id="S2W68" type="standard_car" route="S2W" depart="302.42840712856156" departLane="random" departSpeed="10" />
<vehicle id="E2W69" type="standard_car" route="E2W" depart="311.62585271921085" departLane="random" departSpeed="10" />
<vehicle id="S2E70" type="standard_car" route="S2E" depart="311.8114204266309" departLane="random" departSpeed="10" />
<vehicle id="N2S71" type="standard_car" route="N2S" depart="323.3029814418332" departLane="random" departSpeed="10" />
<vehicle id="N2S72" type="standard_car" route="N2S" depart="333.23273069731533" departLane="random" departSpeed="10" />
<vehicle id="W2E73" type="standard_car" route="W2E" depart="368.6034604388339" departLane="random" departSpeed="10" />
<vehicle id="E2W74" type="standard_car" route="E2W" depart="400.0" departLane="random" departSpeed="10" />
</routes>
