<?xml version="1.0" encoding="UTF-8"?>

            <routes xmlns:xsi="http://www.w3.org/2001/XMLSchema-instance">
                  
            <vType accel="1.0" decel="4.5" id="standard_car" length="5.0" minGap="2.5" maxSpeed="25" sigma="0.5" />) 
            
            <route id="N2W" edges="-125514711 125514713"/>
            <route id="N2S" edges="-125514711 -125514709"/>
            <route id="N2E" edges="-125514711 -548975769"/>     
            <route id="W2N" edges="-125514713 125514711"/>
            <route id="W2E" edges="-125514713 -548975769"/>
            <route id="W2S" edges="-125514711 -125514709"/>
            <route id="S2W" edges="125514709 125514713"/>
            <route id="S2N" edges="125514709 125514711"/>
            <route id="S2E" edges="-125514711 -548975769"/>
            <route id="E2S" edges="548975769 -125514709"/>
            <route id="E2W" edges="548975769 125514713"/>
            <route id="E2N" edges="548975769 125514711"/>
            
<vehicle id="E2W0" type="standard_car" route="E2W" depart="2.8943031792302074" departLane="random" departSpeed="10" />
<vehicle id="N2S1" type="standard_car" route="N2S" depart="8.763673710381335" departLane="random" departSpeed="10" />
<vehicle id="S2N2" type="standard_car" route="S2N" depart="8.790371569342957" departLane="random" departSpeed="10" />
<vehicle id="W2E3" type="standard_car" route="W2E" depart="9.164556995112903" departLane="random" departSpeed="10" />
<vehicle id="E2W4" type="standard_car" route="E2W" depart="9.736941818429566" departLane="random" departSpeed="10" />
<vehicle id="W2E5" type="standard_car" route="W2E" depart="10.448647196713065" departLane="random" departSpeed="10" />
<vehicle id="S2N6" type="standard_car" route="S2N" depart="11.971457039566202" departLane="random" departSpeed="10" />
<vehicle id="E2W7" type="standard_car" route="E2W" depart="15.180653318498297" departLane="random" departSpeed="10" />
<vehicle id="S2N8" type="standard_car" route="S2N" depart="19.724211947706387" departLane="random" departSpeed="10" />
<vehicle id="W2E9" type="standard_car" route="W2E" depart="21.17758098614971" departLane="random" departSpeed="10" />
<vehicle id="S2E10" type="standard_car" route="S2E" depart="22.60804669612425" departLane="random" departSpeed="10" />
<vehicle id="N2W11" type="standard_car" route="N2W" depart="22.764107102751378" departLane="random" departSpeed="10" />
<vehicle id="E2W12" type="standard_car" route="E2W" depart="23.34584629485768" departLane="random" departSpeed="10" />
<vehicle id="N2S13" type="standard_car" route="N2S" depart="24.87474831579866" departLane="random" departSpeed="10" />
<vehicle id="S2N14" type="standard_car" route="S2N" depart="24.92449482571682" departLane="random" departSpeed="10" />
<vehicle id="N2E15" type="standard_car" route="N2E" depart="26.326100453415613" departLane="random" departSpeed="10" />
<vehicle id="E2W16" type="standard_car" route="E2W" depart="30.578274864544852" departLane="random" departSpeed="10" />
<vehicle id="W2E17" type="standard_car" route="W2E" depart="31.664691792581635" departLane="random" departSpeed="10" />
<vehicle id="N2S18" type="standard_car" route="N2S" depart="33.78938405144149" departLane="random" departSpeed="10" />
<vehicle id="E2W19" type="standard_car" route="E2W" depart="33.83503833801782" departLane="random" departSpeed="10" />
<vehicle id="S2N20" type="standard_car" route="S2N" depart="34.01386609628091" departLane="random" departSpeed="10" />
<vehicle id="N2S21" type="standard_car" route="N2S" depart="35.164689993787185" departLane="random" departSpeed="10" />
<vehicle id="S2N22" type="standard_car" route="S2N" depart="35.59822087485691" departLane="random" departSpeed="10" />
<vehicle id="N2S23" type="standard_car" route="N2S" depart="36.866029937574844" departLane="random" departSpeed="10" />
<vehicle id="W2E24" type="standard_car" route="W2E" depart="37.167271313399844" departLane="random" departSpeed="10" />
<vehicle id="E2W25" type="standard_car" route="E2W" depart="37.915208855863156" departLane="random" departSpeed="10" />
<vehicle id="S2N26" type="standard_car" route="S2N" depart="38.75280723766465" departLane="random" departSpeed="10" />
<vehicle id="S2N27" type="standard_car" route="S2N" depart="39.461378733265065" departLane="random" departSpeed="10" />
<vehicle id="E2S28" type="standard_car" route="E2S" depart="39.780019507606035" departLane="random" departSpeed="10" />
<vehicle id="S2N29" type="standard_car" route="S2N" depart="40.00978888622341" departLane="random" departSpeed="10" />
<vehicle id="W2S30" type="standard_car" route="W2S" depart="40.01668548407032" departLane="random" departSpeed="10" />
<vehicle id="W2E31" type="standard_car" route="W2E" depart="40.24576325199397" departLane="random" departSpeed="10" />
<vehicle id="N2S32" type="standard_car" route="N2S" depart="40.371832972822254" departLane="random" departSpeed="10" />
<vehicle id="N2S33" type="standard_car" route="N2S" depart="40.606522703588546" departLane="random" departSpeed="10" />
<vehicle id="N2S34" type="standard_car" route="N2S" depart="41.2250433483161" departLane="random" departSpeed="10" />
<vehicle id="N2S35" type="standard_car" route="N2S" depart="42.21956218586813" departLane="random" departSpeed="10" />
<vehicle id="N2S36" type="standard_car" route="N2S" depart="42.66058441857531" departLane="random" departSpeed="10" />
<vehicle id="W2E37" type="standard_car" route="W2E" depart="43.33897948166649" departLane="random" departSpeed="10" />
<vehicle id="E2W38" type="standard_car" route="E2W" depart="43.48864865979412" departLane="random" departSpeed="10" />
<vehicle id="S2E39" type="standard_car" route="S2E" depart="43.74206191314404" departLane="random" departSpeed="10" />
<vehicle id="S2N40" type="standard_car" route="S2N" depart="44.52815425632009" departLane="random" departSpeed="10" />
<vehicle id="S2N41" type="standard_car" route="S2N" depart="46.009837407048906" departLane="random" departSpeed="10" />
<vehicle id="W2E42" type="standard_car" route="W2E" depart="46.55838671614559" departLane="random" departSpeed="10" />
<vehicle id="S2N43" type="standard_car" route="S2N" depart="47.30300508798727" departLane="random" departSpeed="10" />
<vehicle id="W2E44" type="standard_car" route="W2E" depart="47.851780110127265" departLane="random" departSpeed="10" />
<vehicle id="N2E45" type="standard_car" route="N2E" depart="48.7006087277053" departLane="random" departSpeed="10" />
<vehicle id="S2N46" type="standard_car" route="S2N" depart="49.03032037816521" departLane="random" departSpeed="10" />
<vehicle id="N2W47" type="standard_car" route="N2W" depart="49.104221991451844" departLane="random" departSpeed="10" />
<vehicle id="W2E48" type="standard_car" route="W2E" depart="49.27416409993628" departLane="random" departSpeed="10" />
<vehicle id="N2S49" type="standard_car" route="N2S" depart="49.949221506105054" departLane="random" departSpeed="10" />
<vehicle id="N2S50" type="standard_car" route="N2S" depart="51.87339252689611" departLane="random" departSpeed="10" />
<vehicle id="S2W51" type="standard_car" route="S2W" depart="52.40520009574943" departLane="random" departSpeed="10" />
<vehicle id="W2E52" type="standard_car" route="W2E" depart="52.71188230138804" departLane="random" departSpeed="10" />
<vehicle id="N2S53" type="standard_car" route="N2S" depart="53.06545831266527" departLane="random" departSpeed="10" />
<vehicle id="E2W54" type="standard_car" route="E2W" depart="53.239090329463515" departLane="random" departSpeed="10" />
<vehicle id="N2S55" type="standard_car" route="N2S" depart="53.342572317469426" departLane="random" departSpeed="10" />
<vehicle id="S2N56" type="standard_car" route="S2N" depart="53.75271702412968" departLane="random" departSpeed="10" />
<vehicle id="N2E57" type="standard_car" route="N2E" depart="54.282312762596085" departLane="random" departSpeed="10" />
<vehicle id="N2S58" type="standard_car" route="N2S" depart="54.36482880075258" departLane="random" departSpeed="10" />
<vehicle id="W2E59" type="standard_car" route="W2E" depart="54.427219017756634" departLane="random" departSpeed="10" />
<vehicle id="W2E60" type="standard_car" route="W2E" depart="54.74659629178068" departLane="random" departSpeed="10" />
<vehicle id="S2W61" type="standard_car" route="S2W" depart="55.1141866881902" departLane="random" departSpeed="10" />
<vehicle id="E2W62" type="standard_car" route="E2W" depart="55.88645151578323" departLane="random" departSpeed="10" />
<vehicle id="N2S63" type="standard_car" route="N2S" depart="56.529075229405" departLane="random" departSpeed="10" />
<vehicle id="W2E64" type="standard_car" route="W2E" depart="57.0091072083945" departLane="random" departSpeed="10" />
<vehicle id="N2E65" type="standard_car" route="N2E" depart="57.21443124567591" departLane="random" departSpeed="10" />
<vehicle id="E2W66" type="standard_car" route="E2W" depart="57.67651497043921" departLane="random" departSpeed="10" />
<vehicle id="S2N67" type="standard_car" route="S2N" depart="58.49048126839058" departLane="random" departSpeed="10" />
<vehicle id="W2E68" type="standard_car" route="W2E" depart="58.677012008455186" departLane="random" departSpeed="10" />
<vehicle id="E2S69" type="standard_car" route="E2S" depart="58.76493086855524" departLane="random" departSpeed="10" />
<vehicle id="E2W70" type="standard_car" route="E2W" depart="58.82295324929091" departLane="random" departSpeed="10" />
<vehicle id="E2S71" type="standard_car" route="E2S" depart="58.88045619201445" departLane="random" departSpeed="10" />
<vehicle id="E2N72" type="standard_car" route="E2N" depart="59.22894966158465" departLane="random" departSpeed="10" />
<vehicle id="W2E73" type="standard_car" route="W2E" depart="59.32255616192129" departLane="random" departSpeed="10" />
<vehicle id="W2E74" type="standard_car" route="W2E" depart="59.8528864622786" departLane="random" departSpeed="10" />
<vehicle id="S2N75" type="standard_car" route="S2N" depart="60.311060065718294" departLane="random" departSpeed="10" />
<vehicle id="S2E76" type="standard_car" route="S2E" depart="61.57454589620357" departLane="random" departSpeed="10" />
<vehicle id="S2E77" type="standard_car" route="S2E" depart="62.65493608972397" departLane="random" departSpeed="10" />
<vehicle id="E2W78" type="standard_car" route="E2W" depart="62.77664626645155" departLane="random" departSpeed="10" />
<vehicle id="E2N79" type="standard_car" route="E2N" depart="62.9023454574547" departLane="random" departSpeed="10" />
<vehicle id="E2W80" type="standard_car" route="E2W" depart="62.9430887319308" departLane="random" departSpeed="10" />
<vehicle id="S2N81" type="standard_car" route="S2N" depart="63.557619271706265" departLane="random" departSpeed="10" />
<vehicle id="N2W82" type="standard_car" route="N2W" depart="63.80011777689292" departLane="random" departSpeed="10" />
<vehicle id="N2S83" type="standard_car" route="N2S" depart="64.47054490120046" departLane="random" departSpeed="10" />
<vehicle id="N2S84" type="standard_car" route="N2S" depart="64.87558861225848" departLane="random" departSpeed="10" />
<vehicle id="E2W85" type="standard_car" route="E2W" depart="65.26767604915533" departLane="random" departSpeed="10" />
<vehicle id="N2S86" type="standard_car" route="N2S" depart="65.31211599140664" departLane="random" departSpeed="10" />
<vehicle id="E2W87" type="standard_car" route="E2W" depart="65.88665442439485" departLane="random" departSpeed="10" />
<vehicle id="E2S88" type="standard_car" route="E2S" depart="66.38746700589445" departLane="random" departSpeed="10" />
<vehicle id="W2S89" type="standard_car" route="W2S" depart="66.40870306786215" departLane="random" departSpeed="10" />
<vehicle id="N2W90" type="standard_car" route="N2W" depart="66.56409406680133" departLane="random" departSpeed="10" />
<vehicle id="N2S91" type="standard_car" route="N2S" depart="67.11312634751235" departLane="random" departSpeed="10" />
<vehicle id="W2E92" type="standard_car" route="W2E" depart="67.14952899167041" departLane="random" departSpeed="10" />
<vehicle id="W2S93" type="standard_car" route="W2S" depart="68.13092876793895" departLane="random" departSpeed="10" />
<vehicle id="N2S94" type="standard_car" route="N2S" depart="68.65184099994615" departLane="random" departSpeed="10" />
<vehicle id="E2W95" type="standard_car" route="E2W" depart="68.84424571591943" departLane="random" departSpeed="10" />
<vehicle id="S2N96" type="standard_car" route="S2N" depart="68.92438687953623" departLane="random" departSpeed="10" />
<vehicle id="S2N97" type="standard_car" route="S2N" depart="69.39967605900978" departLane="random" departSpeed="10" />
<vehicle id="W2N98" type="standard_car" route="W2N" depart="70.75278909908265" departLane="random" departSpeed="10" />
<vehicle id="S2N99" type="standard_car" route="S2N" depart="71.00315015693458" departLane="random" departSpeed="10" />
<vehicle id="W2E100" type="standard_car" route="W2E" depart="71.2545623652203" departLane="random" departSpeed="10" />
<vehicle id="S2N101" type="standard_car" route="S2N" depart="71.77825407829475" departLane="random" departSpeed="10" />
<vehicle id="E2N102" type="standard_car" route="E2N" depart="72.03721407605647" departLane="random" departSpeed="10" />
<vehicle id="S2N103" type="standard_car" route="S2N" depart="72.20190526199568" departLane="random" departSpeed="10" />
<vehicle id="W2N104" type="standard_car" route="W2N" depart="72.92087158447418" departLane="random" departSpeed="10" />
<vehicle id="S2N105" type="standard_car" route="S2N" depart="73.14887639219879" departLane="random" departSpeed="10" />
<vehicle id="S2E106" type="standard_car" route="S2E" depart="73.29779314720014" departLane="random" departSpeed="10" />
<vehicle id="E2W107" type="standard_car" route="E2W" depart="73.59291020771735" departLane="random" departSpeed="10" />
<vehicle id="S2W108" type="standard_car" route="S2W" depart="74.13761320371702" departLane="random" departSpeed="10" />
<vehicle id="W2E109" type="standard_car" route="W2E" depart="76.16396994468948" departLane="random" departSpeed="10" />
<vehicle id="E2W110" type="standard_car" route="E2W" depart="76.47906257749774" departLane="random" departSpeed="10" />
<vehicle id="S2E111" type="standard_car" route="S2E" depart="76.56179512781297" departLane="random" departSpeed="10" />
<vehicle id="W2E112" type="standard_car" route="W2E" depart="76.58815925277361" departLane="random" departSpeed="10" />
<vehicle id="N2S113" type="standard_car" route="N2S" depart="76.9610745673419" departLane="random" departSpeed="10" />
<vehicle id="S2W114" type="standard_car" route="S2W" depart="78.27026894431887" departLane="random" departSpeed="10" />
<vehicle id="W2E115" type="standard_car" route="W2E" depart="79.0303286199661" departLane="random" departSpeed="10" />
<vehicle id="E2W116" type="standard_car" route="E2W" depart="79.53219348114258" departLane="random" departSpeed="10" />
<vehicle id="S2E117" type="standard_car" route="S2E" depart="80.93668840961529" departLane="random" departSpeed="10" />
<vehicle id="W2E118" type="standard_car" route="W2E" depart="82.09070981203713" departLane="random" departSpeed="10" />
<vehicle id="S2N119" type="standard_car" route="S2N" depart="82.23626232689409" departLane="random" departSpeed="10" />
<vehicle id="E2W120" type="standard_car" route="E2W" depart="82.67737597451436" departLane="random" departSpeed="10" />
<vehicle id="W2E121" type="standard_car" route="W2E" depart="83.22382134277746" departLane="random" departSpeed="10" />
<vehicle id="S2N122" type="standard_car" route="S2N" depart="83.98611897086388" departLane="random" departSpeed="10" />
<vehicle id="W2E123" type="standard_car" route="W2E" depart="84.05745855920736" departLane="random" departSpeed="10" />
<vehicle id="W2E124" type="standard_car" route="W2E" depart="84.94797722167795" departLane="random" departSpeed="10" />
<vehicle id="S2N125" type="standard_car" route="S2N" depart="85.0117765143591" departLane="random" departSpeed="10" />
<vehicle id="E2W126" type="standard_car" route="E2W" depart="85.07878403623283" departLane="random" departSpeed="10" />
<vehicle id="W2E127" type="standard_car" route="W2E" depart="85.49852494670459" departLane="random" departSpeed="10" />
<vehicle id="W2E128" type="standard_car" route="W2E" depart="85.87701947993699" departLane="random" departSpeed="10" />
<vehicle id="S2W129" type="standard_car" route="S2W" depart="86.0354467231426" departLane="random" departSpeed="10" />
<vehicle id="N2S130" type="standard_car" route="N2S" depart="86.15509388922585" departLane="random" departSpeed="10" />
<vehicle id="E2S131" type="standard_car" route="E2S" depart="86.3386005688377" departLane="random" departSpeed="10" />
<vehicle id="E2W132" type="standard_car" route="E2W" depart="86.65740746971642" departLane="random" departSpeed="10" />
<vehicle id="E2W133" type="standard_car" route="E2W" depart="87.5894594698398" departLane="random" departSpeed="10" />
<vehicle id="N2S134" type="standard_car" route="N2S" depart="87.76425425737992" departLane="random" departSpeed="10" />
<vehicle id="E2W135" type="standard_car" route="E2W" depart="87.8687291284665" departLane="random" departSpeed="10" />
<vehicle id="N2S136" type="standard_car" route="N2S" depart="89.42827820604047" departLane="random" departSpeed="10" />
<vehicle id="W2E137" type="standard_car" route="W2E" depart="90.34401460048315" departLane="random" departSpeed="10" />
<vehicle id="W2E138" type="standard_car" route="W2E" depart="91.51491903968409" departLane="random" departSpeed="10" />
<vehicle id="E2S139" type="standard_car" route="E2S" depart="92.57755892754489" departLane="random" departSpeed="10" />
<vehicle id="W2E140" type="standard_car" route="W2E" depart="92.89341598540057" departLane="random" departSpeed="10" />
<vehicle id="S2N141" type="standard_car" route="S2N" depart="92.95879326714473" departLane="random" departSpeed="10" />
<vehicle id="E2W142" type="standard_car" route="E2W" depart="93.07489570835178" departLane="random" departSpeed="10" />
<vehicle id="S2E143" type="standard_car" route="S2E" depart="93.1211834489839" departLane="random" departSpeed="10" />
<vehicle id="E2W144" type="standard_car" route="E2W" depart="94.14431407185654" departLane="random" departSpeed="10" />
<vehicle id="E2W145" type="standard_car" route="E2W" depart="94.9497743876067" departLane="random" departSpeed="10" />
<vehicle id="E2W146" type="standard_car" route="E2W" depart="95.0688125435852" departLane="random" departSpeed="10" />
<vehicle id="W2E147" type="standard_car" route="W2E" depart="96.56396115073889" departLane="random" departSpeed="10" />
<vehicle id="S2E148" type="standard_car" route="S2E" depart="98.10288977296351" departLane="random" departSpeed="10" />
<vehicle id="N2W149" type="standard_car" route="N2W" depart="98.4000704460911" departLane="random" departSpeed="10" />
<vehicle id="W2E150" type="standard_car" route="W2E" depart="99.67279455748009" departLane="random" departSpeed="10" />
<vehicle id="W2E151" type="standard_car" route="W2E" depart="99.84189847963437" departLane="random" departSpeed="10" />
<vehicle id="W2E152" type="standard_car" route="W2E" depart="100.19826596129464" departLane="random" departSpeed="10" />
<vehicle id="S2N153" type="standard_car" route="S2N" depart="100.33024940762414" departLane="random" departSpeed="10" />
<vehicle id="S2N154" type="standard_car" route="S2N" depart="101.39871842225088" departLane="random" departSpeed="10" />
<vehicle id="N2S155" type="standard_car" route="N2S" depart="102.42886787005571" departLane="random" departSpeed="10" />
<vehicle id="N2S156" type="standard_car" route="N2S" depart="102.5335772579063" departLane="random" departSpeed="10" />
<vehicle id="N2S157" type="standard_car" route="N2S" depart="102.94712575964616" departLane="random" departSpeed="10" />
<vehicle id="W2E158" type="standard_car" route="W2E" depart="103.74991074720919" departLane="random" departSpeed="10" />
<vehicle id="W2E159" type="standard_car" route="W2E" depart="103.77062853334613" departLane="random" departSpeed="10" />
<vehicle id="W2E160" type="standard_car" route="W2E" depart="104.08805904885685" departLane="random" departSpeed="10" />
<vehicle id="S2N161" type="standard_car" route="S2N" depart="104.56601302148985" departLane="random" departSpeed="10" />
<vehicle id="E2W162" type="standard_car" route="E2W" depart="104.73154848924528" departLane="random" departSpeed="10" />
<vehicle id="N2W163" type="standard_car" route="N2W" depart="105.0338904799531" departLane="random" departSpeed="10" />
<vehicle id="N2S164" type="standard_car" route="N2S" depart="105.14351294328836" departLane="random" departSpeed="10" />
<vehicle id="S2N165" type="standard_car" route="S2N" depart="105.45371846010276" departLane="random" departSpeed="10" />
<vehicle id="S2E166" type="standard_car" route="S2E" depart="105.48569715770904" departLane="random" departSpeed="10" />
<vehicle id="E2N167" type="standard_car" route="E2N" depart="106.44943885100284" departLane="random" departSpeed="10" />
<vehicle id="N2S168" type="standard_car" route="N2S" depart="107.17360984346523" departLane="random" departSpeed="10" />
<vehicle id="N2S169" type="standard_car" route="N2S" depart="107.20750670913854" departLane="random" departSpeed="10" />
<vehicle id="N2S170" type="standard_car" route="N2S" depart="107.28276771826198" departLane="random" departSpeed="10" />
<vehicle id="W2N171" type="standard_car" route="W2N" depart="107.96984447633271" departLane="random" departSpeed="10" />
<vehicle id="N2S172" type="standard_car" route="N2S" depart="108.33213556424136" departLane="random" departSpeed="10" />
<vehicle id="N2S173" type="standard_car" route="N2S" depart="108.48912526815629" departLane="random" departSpeed="10" />
<vehicle id="E2S174" type="standard_car" route="E2S" depart="109.95142683130936" departLane="random" departSpeed="10" />
<vehicle id="W2E175" type="standard_car" route="W2E" depart="110.69482032419438" departLane="random" departSpeed="10" />
<vehicle id="E2W176" type="standard_car" route="E2W" depart="111.07200603343674" departLane="random" departSpeed="10" />
<vehicle id="W2E177" type="standard_car" route="W2E" depart="111.85066630961849" departLane="random" departSpeed="10" />
<vehicle id="S2N178" type="standard_car" route="S2N" depart="112.46939452161135" departLane="random" departSpeed="10" />
<vehicle id="W2E179" type="standard_car" route="W2E" depart="114.07970169722094" departLane="random" departSpeed="10" />
<vehicle id="E2W180" type="standard_car" route="E2W" depart="115.73496500845101" departLane="random" departSpeed="10" />
<vehicle id="W2E181" type="standard_car" route="W2E" depart="118.06560271419269" departLane="random" departSpeed="10" />
<vehicle id="N2S182" type="standard_car" route="N2S" depart="119.55952752811041" departLane="random" departSpeed="10" />
<vehicle id="E2S183" type="standard_car" route="E2S" depart="120.65409951384214" departLane="random" departSpeed="10" />
<vehicle id="E2W184" type="standard_car" route="E2W" depart="121.20467907067585" departLane="random" departSpeed="10" />
<vehicle id="S2N185" type="standard_car" route="S2N" depart="121.45447021539069" departLane="random" departSpeed="10" />
<vehicle id="N2W186" type="standard_car" route="N2W" depart="122.19368369769579" departLane="random" departSpeed="10" />
<vehicle id="E2W187" type="standard_car" route="E2W" depart="123.4568519912465" departLane="random" departSpeed="10" />
<vehicle id="N2S188" type="standard_car" route="N2S" depart="123.57338116052946" departLane="random" departSpeed="10" />
<vehicle id="W2E189" type="standard_car" route="W2E" depart="125.07875449127879" departLane="random" departSpeed="10" />
<vehicle id="W2E190" type="standard_car" route="W2E" depart="126.96998749467497" departLane="random" departSpeed="10" />
<vehicle id="S2N191" type="standard_car" route="S2N" depart="127.97349528656481" departLane="random" departSpeed="10" />
<vehicle id="W2N192" type="standard_car" route="W2N" depart="130.50203483612802" departLane="random" departSpeed="10" />
<vehicle id="S2E193" type="standard_car" route="S2E" depart="131.39662606202512" departLane="random" departSpeed="10" />
<vehicle id="N2S194" type="standard_car" route="N2S" depart="134.4155387118129" departLane="random" departSpeed="10" />
<vehicle id="S2N195" type="standard_car" route="S2N" depart="134.59779296038647" departLane="random" departSpeed="10" />
<vehicle id="N2S196" type="standard_car" route="N2S" depart="135.61420091378628" departLane="random" departSpeed="10" />
<vehicle id="S2W197" type="standard_car" route="S2W" depart="136.37970322890928" departLane="random" departSpeed="10" />
<vehicle id="S2E198" type="standard_car" route="S2E" depart="139.67200536293024" departLane="random" departSpeed="10" />
<vehicle id="W2E199" type="standard_car" route="W2E" depart="142.0987360767481" departLane="random" departSpeed="10" />
<vehicle id="N2S200" type="standard_car" route="N2S" depart="142.95265060655817" departLane="random" departSpeed="10" />
<vehicle id="S2N201" type="standard_car" route="S2N" depart="143.30629682055707" departLane="random" departSpeed="10" />
<vehicle id="N2E202" type="standard_car" route="N2E" depart="143.62135577677762" departLane="random" departSpeed="10" />
<vehicle id="E2W203" type="standard_car" route="E2W" depart="144.1032114292451" departLane="random" departSpeed="10" />
<vehicle id="S2N204" type="standard_car" route="S2N" depart="144.53402358755298" departLane="random" departSpeed="10" />
<vehicle id="W2N205" type="standard_car" route="W2N" depart="145.29511275727134" departLane="random" departSpeed="10" />
<vehicle id="N2W206" type="standard_car" route="N2W" depart="145.69592280925957" departLane="random" departSpeed="10" />
<vehicle id="S2N207" type="standard_car" route="S2N" depart="145.71457302216422" departLane="random" departSpeed="10" />
<vehicle id="S2N208" type="standard_car" route="S2N" depart="148.40461557480407" departLane="random" departSpeed="10" />
<vehicle id="W2E209" type="standard_car" route="W2E" depart="149.39375925451324" departLane="random" departSpeed="10" />
<vehicle id="S2W210" type="standard_car" route="S2W" depart="150.99807770109487" departLane="random" departSpeed="10" />
<vehicle id="S2E211" type="standard_car" route="S2E" depart="152.74334576786043" departLane="random" departSpeed="10" />
<vehicle id="N2S212" type="standard_car" route="N2S" depart="152.89040688295174" departLane="random" departSpeed="10" />
<vehicle id="W2E213" type="standard_car" route="W2E" depart="152.9714277164794" departLane="random" departSpeed="10" />
<vehicle id="N2S214" type="standard_car" route="N2S" depart="153.8123846157223" departLane="random" departSpeed="10" />
<vehicle id="S2E215" type="standard_car" route="S2E" depart="156.26938595926487" departLane="random" departSpeed="10" />
<vehicle id="E2W216" type="standard_car" route="E2W" depart="156.90103870603852" departLane="random" departSpeed="10" />
<vehicle id="W2N217" type="standard_car" route="W2N" depart="165.12531543000546" departLane="random" departSpeed="10" />
<vehicle id="W2N218" type="standard_car" route="W2N" depart="166.33924544624753" departLane="random" departSpeed="10" />
<vehicle id="S2E219" type="standard_car" route="S2E" depart="166.5493545664193" departLane="random" departSpeed="10" />
<vehicle id="W2E220" type="standard_car" route="W2E" depart="171.7977647424657" departLane="random" departSpeed="10" />
<vehicle id="S2N221" type="standard_car" route="S2N" depart="174.54925582714358" departLane="random" departSpeed="10" />
<vehicle id="N2S222" type="standard_car" route="N2S" depart="183.86545395726793" departLane="random" departSpeed="10" />
<vehicle id="N2S223" type="standard_car" route="N2S" depart="200.0" departLane="random" departSpeed="10" />
</routes>
