<?xml version="1.0" encoding="UTF-8"?>

            <routes xmlns:xsi="http://www.w3.org/2001/XMLSchema-instance">
   
            <vType accel="1.0" decel="4.5" id="standard_car" length="5.0" minGap="2.5" maxSpeed="25" sigma="0.5" />) 
            
            <route id="N2W" edges="-125514711 125514713"/>
            <route id="N2S" edges="-125514711 -125514709"/>
            <route id="N2E" edges="-125514711 -548975769"/>     
            <route id="W2N" edges="-125514713 125514711"/>
            <route id="W2E" edges="-125514713 -548975769"/>
            <route id="W2S" edges="-125514711 -125514709"/>
            <route id="S2W" edges="125514709 125514713"/>
            <route id="S2N" edges="125514709 125514711"/>
            <route id="S2E" edges="-125514711 -548975769"/>
            <route id="E2S" edges="548975769 -125514709"/>
            <route id="E2W" edges="548975769 125514713"/>
            <route id="E2N" edges="548975769 125514711"/>
            
<vehicle id="W2E0" type="standard_car" route="W2E" depart="11.990097769914522" departLane="random" departSpeed="10" />
<vehicle id="N2E1" type="standard_car" route="N2E" depart="17.827681749579625" departLane="random" departSpeed="10" />
<vehicle id="N2S2" type="standard_car" route="N2S" depart="27.959600285049703" departLane="random" departSpeed="10" />
<vehicle id="S2N3" type="standard_car" route="S2N" depart="30.728481589311002" departLane="random" departSpeed="10" />
<vehicle id="W2S4" type="standard_car" route="W2S" depart="41.20752211885811" departLane="random" departSpeed="10" />
<vehicle id="S2E5" type="standard_car" route="S2E" depart="41.251106207894715" departLane="random" departSpeed="10" />
<vehicle id="E2W6" type="standard_car" route="E2W" depart="41.43889944156296" departLane="random" departSpeed="10" />
<vehicle id="W2E7" type="standard_car" route="W2E" depart="53.55196234814793" departLane="random" departSpeed="10" />
<vehicle id="N2S8" type="standard_car" route="N2S" depart="58.62816670154861" departLane="random" departSpeed="10" />
<vehicle id="E2W9" type="standard_car" route="E2W" depart="60.98081887743709" departLane="random" departSpeed="10" />
<vehicle id="N2S10" type="standard_car" route="N2S" depart="61.267312292719524" departLane="random" departSpeed="10" />
<vehicle id="S2N11" type="standard_car" route="S2N" depart="65.05614662416272" departLane="random" departSpeed="10" />
<vehicle id="S2W12" type="standard_car" route="S2W" depart="65.2498969122677" departLane="random" departSpeed="10" />
<vehicle id="S2N13" type="standard_car" route="S2N" depart="66.87209469083338" departLane="random" departSpeed="10" />
<vehicle id="N2S14" type="standard_car" route="N2S" depart="67.00473225175736" departLane="random" departSpeed="10" />
<vehicle id="S2W15" type="standard_car" route="S2W" depart="69.61434944551915" departLane="random" departSpeed="10" />
<vehicle id="W2E16" type="standard_car" route="W2E" depart="73.23959141126531" departLane="random" departSpeed="10" />
<vehicle id="E2W17" type="standard_car" route="E2W" depart="75.21045193140299" departLane="random" departSpeed="10" />
<vehicle id="N2S18" type="standard_car" route="N2S" depart="75.35050969595395" departLane="random" departSpeed="10" />
<vehicle id="N2S19" type="standard_car" route="N2S" depart="78.27421880226181" departLane="random" departSpeed="10" />
<vehicle id="W2E20" type="standard_car" route="W2E" depart="81.11840518787477" departLane="random" departSpeed="10" />
<vehicle id="S2N21" type="standard_car" route="S2N" depart="82.16099835707105" departLane="random" departSpeed="10" />
<vehicle id="S2E22" type="standard_car" route="S2E" depart="82.17134692634836" departLane="random" departSpeed="10" />
<vehicle id="N2W23" type="standard_car" route="N2W" depart="84.73747608446716" departLane="random" departSpeed="10" />
<vehicle id="W2N24" type="standard_car" route="W2N" depart="84.76802324836197" departLane="random" departSpeed="10" />
<vehicle id="N2S25" type="standard_car" route="N2S" depart="85.05835901127963" departLane="random" departSpeed="10" />
<vehicle id="E2W26" type="standard_car" route="E2W" depart="85.45982725511529" departLane="random" departSpeed="10" />
<vehicle id="S2W27" type="standard_car" route="S2W" depart="87.31865470064994" departLane="random" departSpeed="10" />
<vehicle id="E2W28" type="standard_car" route="E2W" depart="92.37122288667787" departLane="random" departSpeed="10" />
<vehicle id="S2N29" type="standard_car" route="S2N" depart="95.83061198626878" departLane="random" departSpeed="10" />
<vehicle id="S2N30" type="standard_car" route="S2N" depart="100.33293264363488" departLane="random" departSpeed="10" />
<vehicle id="N2W31" type="standard_car" route="N2W" depart="101.3622658604932" departLane="random" departSpeed="10" />
<vehicle id="N2S32" type="standard_car" route="N2S" depart="106.45993945755193" departLane="random" departSpeed="10" />
<vehicle id="S2N33" type="standard_car" route="S2N" depart="111.46204928899816" departLane="random" departSpeed="10" />
<vehicle id="N2W34" type="standard_car" route="N2W" depart="115.29833141191826" departLane="random" departSpeed="10" />
<vehicle id="N2S35" type="standard_car" route="N2S" depart="115.82556191689092" departLane="random" departSpeed="10" />
<vehicle id="N2S36" type="standard_car" route="N2S" depart="120.37946090168865" departLane="random" departSpeed="10" />
<vehicle id="W2E37" type="standard_car" route="W2E" depart="120.8131479200245" departLane="random" departSpeed="10" />
<vehicle id="W2E38" type="standard_car" route="W2E" depart="121.75440122624842" departLane="random" departSpeed="10" />
<vehicle id="E2W39" type="standard_car" route="E2W" depart="122.01367362596824" departLane="random" departSpeed="10" />
<vehicle id="E2W40" type="standard_car" route="E2W" depart="123.01848827436031" departLane="random" departSpeed="10" />
<vehicle id="S2N41" type="standard_car" route="S2N" depart="124.23299866295427" departLane="random" departSpeed="10" />
<vehicle id="S2N42" type="standard_car" route="S2N" depart="125.82747136650521" departLane="random" departSpeed="10" />
<vehicle id="S2N43" type="standard_car" route="S2N" depart="127.12636541042757" departLane="random" departSpeed="10" />
<vehicle id="W2N44" type="standard_car" route="W2N" depart="129.09075793004723" departLane="random" departSpeed="10" />
<vehicle id="W2S45" type="standard_car" route="W2S" depart="130.33955432648486" departLane="random" departSpeed="10" />
<vehicle id="S2N46" type="standard_car" route="S2N" depart="141.1657714446539" departLane="random" departSpeed="10" />
<vehicle id="N2S47" type="standard_car" route="N2S" depart="142.52456419674579" departLane="random" departSpeed="10" />
<vehicle id="N2E48" type="standard_car" route="N2E" depart="150.865650870976" departLane="random" departSpeed="10" />
<vehicle id="E2N49" type="standard_car" route="E2N" depart="152.2796651667262" departLane="random" departSpeed="10" />
<vehicle id="S2W50" type="standard_car" route="S2W" depart="159.236995805842" departLane="random" departSpeed="10" />
<vehicle id="N2E51" type="standard_car" route="N2E" depart="162.25223999822728" departLane="random" departSpeed="10" />
<vehicle id="E2W52" type="standard_car" route="E2W" depart="164.63795476937702" departLane="random" departSpeed="10" />
<vehicle id="E2W53" type="standard_car" route="E2W" depart="164.7384145094708" departLane="random" departSpeed="10" />
<vehicle id="E2W54" type="standard_car" route="E2W" depart="168.58188184481068" departLane="random" departSpeed="10" />
<vehicle id="E2W55" type="standard_car" route="E2W" depart="176.42281548746493" departLane="random" departSpeed="10" />
<vehicle id="S2N56" type="standard_car" route="S2N" depart="176.51067934469367" departLane="random" departSpeed="10" />
<vehicle id="S2N57" type="standard_car" route="S2N" depart="177.00598901190048" departLane="random" departSpeed="10" />
<vehicle id="W2E58" type="standard_car" route="W2E" depart="178.57943630490863" departLane="random" departSpeed="10" />
<vehicle id="S2N59" type="standard_car" route="S2N" depart="180.6784799363793" departLane="random" departSpeed="10" />
<vehicle id="E2W60" type="standard_car" route="E2W" depart="181.54406618503967" departLane="random" departSpeed="10" />
<vehicle id="S2E61" type="standard_car" route="S2E" depart="183.7812279033804" departLane="random" departSpeed="10" />
<vehicle id="W2E62" type="standard_car" route="W2E" depart="185.55454725645345" departLane="random" departSpeed="10" />
<vehicle id="S2E63" type="standard_car" route="S2E" depart="185.7624392418073" departLane="random" departSpeed="10" />
<vehicle id="E2S64" type="standard_car" route="E2S" depart="187.4060157896459" departLane="random" departSpeed="10" />
<vehicle id="W2E65" type="standard_car" route="W2E" depart="191.30253091653196" departLane="random" departSpeed="10" />
<vehicle id="S2N66" type="standard_car" route="S2N" depart="191.31682332678238" departLane="random" departSpeed="10" />
<vehicle id="W2E67" type="standard_car" route="W2E" depart="195.82854982120568" departLane="random" departSpeed="10" />
<vehicle id="N2E68" type="standard_car" route="N2E" depart="200.73499721658925" departLane="random" departSpeed="10" />
<vehicle id="W2E69" type="standard_car" route="W2E" depart="202.81867906596005" departLane="random" departSpeed="10" />
<vehicle id="E2W70" type="standard_car" route="E2W" depart="206.95181378643144" departLane="random" departSpeed="10" />
<vehicle id="W2E71" type="standard_car" route="W2E" depart="231.41503329630433" departLane="random" departSpeed="10" />
<vehicle id="E2S72" type="standard_car" route="E2S" depart="239.04279406323957" departLane="random" departSpeed="10" />
<vehicle id="N2S73" type="standard_car" route="N2S" depart="240.3019540042613" departLane="random" departSpeed="10" />
<vehicle id="W2E74" type="standard_car" route="W2E" depart="240.36224781479334" departLane="random" departSpeed="10" />
<vehicle id="N2S75" type="standard_car" route="N2S" depart="244.23090804574448" departLane="random" departSpeed="10" />
<vehicle id="S2N76" type="standard_car" route="S2N" depart="254.3741516643519" departLane="random" departSpeed="10" />
<vehicle id="W2S77" type="standard_car" route="W2S" depart="256.4389829281395" departLane="random" departSpeed="10" />
<vehicle id="N2S78" type="standard_car" route="N2S" depart="260.191742605826" departLane="random" departSpeed="10" />
<vehicle id="S2N79" type="standard_car" route="S2N" depart="264.2797074164261" departLane="random" departSpeed="10" />
<vehicle id="S2N80" type="standard_car" route="S2N" depart="273.42336217688404" departLane="random" departSpeed="10" />
<vehicle id="S2N81" type="standard_car" route="S2N" depart="275.49497236150984" departLane="random" departSpeed="10" />
<vehicle id="E2W82" type="standard_car" route="E2W" depart="276.5787098140932" departLane="random" departSpeed="10" />
<vehicle id="E2W83" type="standard_car" route="E2W" depart="281.15720771484933" departLane="random" departSpeed="10" />
<vehicle id="N2S84" type="standard_car" route="N2S" depart="282.1179473427014" departLane="random" departSpeed="10" />
<vehicle id="W2E85" type="standard_car" route="W2E" depart="284.2745502462366" departLane="random" departSpeed="10" />
<vehicle id="N2W86" type="standard_car" route="N2W" depart="284.7122050809428" departLane="random" departSpeed="10" />
<vehicle id="S2N87" type="standard_car" route="S2N" depart="287.8367387812768" departLane="random" departSpeed="10" />
<vehicle id="S2N88" type="standard_car" route="S2N" depart="291.26688083302633" departLane="random" departSpeed="10" />
<vehicle id="E2W89" type="standard_car" route="E2W" depart="293.58172616618316" departLane="random" departSpeed="10" />
<vehicle id="W2N90" type="standard_car" route="W2N" depart="302.32376606441136" departLane="random" departSpeed="10" />
<vehicle id="E2W91" type="standard_car" route="E2W" depart="304.0515550595665" departLane="random" departSpeed="10" />
<vehicle id="S2N92" type="standard_car" route="S2N" depart="317.52309768302325" departLane="random" departSpeed="10" />
<vehicle id="W2E93" type="standard_car" route="W2E" depart="319.99093614400556" departLane="random" departSpeed="10" />
<vehicle id="N2E94" type="standard_car" route="N2E" depart="329.50796729153564" departLane="random" departSpeed="10" />
<vehicle id="N2S95" type="standard_car" route="N2S" depart="352.389568337724" departLane="random" departSpeed="10" />
<vehicle id="N2E96" type="standard_car" route="N2E" depart="401.5753621743787" departLane="random" departSpeed="10" />
<vehicle id="W2E97" type="standard_car" route="W2E" depart="425.7204318522471" departLane="random" departSpeed="10" />
<vehicle id="W2S98" type="standard_car" route="W2S" depart="427.93226513268877" departLane="random" departSpeed="10" />
<vehicle id="S2N99" type="standard_car" route="S2N" depart="500.0" departLane="random" departSpeed="10" />
</routes>
