<?xml version="1.0" encoding="UTF-8"?>

            <routes xmlns:xsi="http://www.w3.org/2001/XMLSchema-instance">
   
            <vType accel="1.0" decel="4.5" id="standard_car" length="5.0" minGap="2.5" maxSpeed="25" sigma="0.5" />) 
            
            <route id="N2W" edges="-125514711 125514713"/>
            <route id="N2S" edges="-125514711 -125514709"/>
            <route id="N2E" edges="-125514711 -548975769"/>     
            <route id="W2N" edges="-125514713 125514711"/>
            <route id="W2E" edges="-125514713 -548975769"/>
            <route id="W2S" edges="-125514711 -125514709"/>
            <route id="S2W" edges="125514709 125514713"/>
            <route id="S2N" edges="125514709 125514711"/>
            <route id="S2E" edges="-125514711 -548975769"/>
            <route id="E2S" edges="548975769 -125514709"/>
            <route id="E2W" edges="548975769 125514713"/>
            <route id="E2N" edges="548975769 125514711"/>
            
<vehicle id="N2S0" type="standard_car" route="N2S" depart="41.09923996657602" departLane="random" departSpeed="10" />
<vehicle id="N2S1" type="standard_car" route="N2S" depart="43.181024867662096" departLane="random" departSpeed="10" />
<vehicle id="N2S2" type="standard_car" route="N2S" depart="49.260262642616624" departLane="random" departSpeed="10" />
<vehicle id="W2E3" type="standard_car" route="W2E" depart="53.94410392183894" departLane="random" departSpeed="10" />
<vehicle id="N2S4" type="standard_car" route="N2S" depart="54.35573387401343" departLane="random" departSpeed="10" />
<vehicle id="S2N5" type="standard_car" route="S2N" depart="63.227041935170035" departLane="random" departSpeed="10" />
<vehicle id="W2E6" type="standard_car" route="W2E" depart="67.39867390476797" departLane="random" departSpeed="10" />
<vehicle id="E2W7" type="standard_car" route="E2W" depart="73.31870246157412" departLane="random" departSpeed="10" />
<vehicle id="E2W8" type="standard_car" route="E2W" depart="74.56517173376415" departLane="random" departSpeed="10" />
<vehicle id="E2W9" type="standard_car" route="E2W" depart="81.76488181841344" departLane="random" departSpeed="10" />
<vehicle id="E2N10" type="standard_car" route="E2N" depart="94.33440608520594" departLane="random" departSpeed="10" />
<vehicle id="W2E11" type="standard_car" route="W2E" depart="95.37287766949049" departLane="random" departSpeed="10" />
<vehicle id="W2E12" type="standard_car" route="W2E" depart="95.8109449732313" departLane="random" departSpeed="10" />
<vehicle id="W2E13" type="standard_car" route="W2E" depart="100.46316517667199" departLane="random" departSpeed="10" />
<vehicle id="N2S14" type="standard_car" route="N2S" depart="104.72759009375928" departLane="random" departSpeed="10" />
<vehicle id="S2N15" type="standard_car" route="S2N" depart="104.74716461932671" departLane="random" departSpeed="10" />
<vehicle id="W2E16" type="standard_car" route="W2E" depart="111.61520059612104" departLane="random" departSpeed="10" />
<vehicle id="E2W17" type="standard_car" route="E2W" depart="116.41986447475887" departLane="random" departSpeed="10" />
<vehicle id="W2E18" type="standard_car" route="W2E" depart="117.29618541325834" departLane="random" departSpeed="10" />
<vehicle id="W2E19" type="standard_car" route="W2E" depart="118.97639582196547" departLane="random" departSpeed="10" />
<vehicle id="E2W20" type="standard_car" route="E2W" depart="120.32232234754261" departLane="random" departSpeed="10" />
<vehicle id="W2E21" type="standard_car" route="W2E" depart="124.39254060870843" departLane="random" departSpeed="10" />
<vehicle id="N2S22" type="standard_car" route="N2S" depart="125.0003998943708" departLane="random" departSpeed="10" />
<vehicle id="S2N23" type="standard_car" route="S2N" depart="125.59754031200394" departLane="random" departSpeed="10" />
<vehicle id="S2N24" type="standard_car" route="S2N" depart="133.51628782096512" departLane="random" departSpeed="10" />
<vehicle id="E2W25" type="standard_car" route="E2W" depart="135.63162168790387" departLane="random" departSpeed="10" />
<vehicle id="S2N26" type="standard_car" route="S2N" depart="137.15522237286314" departLane="random" departSpeed="10" />
<vehicle id="S2N27" type="standard_car" route="S2N" depart="139.50084463475045" departLane="random" departSpeed="10" />
<vehicle id="S2N28" type="standard_car" route="S2N" depart="139.56017563934847" departLane="random" departSpeed="10" />
<vehicle id="E2W29" type="standard_car" route="E2W" depart="147.90624368019277" departLane="random" departSpeed="10" />
<vehicle id="E2W30" type="standard_car" route="E2W" depart="149.22701647909773" departLane="random" departSpeed="10" />
<vehicle id="S2N31" type="standard_car" route="S2N" depart="153.43323453887137" departLane="random" departSpeed="10" />
<vehicle id="W2S32" type="standard_car" route="W2S" depart="159.76615087416434" departLane="random" departSpeed="10" />
<vehicle id="S2W33" type="standard_car" route="S2W" depart="160.25654897254546" departLane="random" departSpeed="10" />
<vehicle id="S2N34" type="standard_car" route="S2N" depart="161.54541016632734" departLane="random" departSpeed="10" />
<vehicle id="W2E35" type="standard_car" route="W2E" depart="167.7817332697265" departLane="random" departSpeed="10" />
<vehicle id="E2W36" type="standard_car" route="E2W" depart="170.42378287928685" departLane="random" departSpeed="10" />
<vehicle id="W2E37" type="standard_car" route="W2E" depart="170.648454243186" departLane="random" departSpeed="10" />
<vehicle id="E2W38" type="standard_car" route="E2W" depart="171.93837312177834" departLane="random" departSpeed="10" />
<vehicle id="S2N39" type="standard_car" route="S2N" depart="173.5467411486232" departLane="random" departSpeed="10" />
<vehicle id="E2W40" type="standard_car" route="E2W" depart="174.39763154503785" departLane="random" departSpeed="10" />
<vehicle id="N2S41" type="standard_car" route="N2S" depart="178.64578549227105" departLane="random" departSpeed="10" />
<vehicle id="N2S42" type="standard_car" route="N2S" depart="180.2723091630122" departLane="random" departSpeed="10" />
<vehicle id="S2N43" type="standard_car" route="S2N" depart="181.94069607861508" departLane="random" departSpeed="10" />
<vehicle id="S2N44" type="standard_car" route="S2N" depart="185.91534160872067" departLane="random" departSpeed="10" />
<vehicle id="N2W45" type="standard_car" route="N2W" depart="187.90989371608455" departLane="random" departSpeed="10" />
<vehicle id="W2E46" type="standard_car" route="W2E" depart="192.30163125172174" departLane="random" departSpeed="10" />
<vehicle id="N2S47" type="standard_car" route="N2S" depart="196.1379976157647" departLane="random" departSpeed="10" />
<vehicle id="E2W48" type="standard_car" route="E2W" depart="196.62861038189655" departLane="random" departSpeed="10" />
<vehicle id="E2W49" type="standard_car" route="E2W" depart="197.8122529518494" departLane="random" departSpeed="10" />
<vehicle id="N2W50" type="standard_car" route="N2W" depart="198.7830343343968" departLane="random" departSpeed="10" />
<vehicle id="E2N51" type="standard_car" route="E2N" depart="200.25330894167888" departLane="random" departSpeed="10" />
<vehicle id="E2W52" type="standard_car" route="E2W" depart="209.2666855295744" departLane="random" departSpeed="10" />
<vehicle id="W2E53" type="standard_car" route="W2E" depart="210.52499462061235" departLane="random" departSpeed="10" />
<vehicle id="E2W54" type="standard_car" route="E2W" depart="235.5071389564933" departLane="random" departSpeed="10" />
<vehicle id="N2S55" type="standard_car" route="N2S" depart="249.47523806617596" departLane="random" departSpeed="10" />
<vehicle id="W2E56" type="standard_car" route="W2E" depart="255.54082816149167" departLane="random" departSpeed="10" />
<vehicle id="S2N57" type="standard_car" route="S2N" depart="256.152230618685" departLane="random" departSpeed="10" />
<vehicle id="S2E58" type="standard_car" route="S2E" depart="263.68093041785284" departLane="random" departSpeed="10" />
<vehicle id="W2E59" type="standard_car" route="W2E" depart="267.22594606947195" departLane="random" departSpeed="10" />
<vehicle id="S2N60" type="standard_car" route="S2N" depart="273.5904807691832" departLane="random" departSpeed="10" />
<vehicle id="S2N61" type="standard_car" route="S2N" depart="284.9056261106998" departLane="random" departSpeed="10" />
<vehicle id="W2E62" type="standard_car" route="W2E" depart="287.9253454866392" departLane="random" departSpeed="10" />
<vehicle id="N2E63" type="standard_car" route="N2E" depart="298.23539496160055" departLane="random" departSpeed="10" />
<vehicle id="E2W64" type="standard_car" route="E2W" depart="300.0836389589716" departLane="random" departSpeed="10" />
<vehicle id="W2E65" type="standard_car" route="W2E" depart="306.44151809207114" departLane="random" departSpeed="10" />
<vehicle id="S2N66" type="standard_car" route="S2N" depart="315.5561804340564" departLane="random" departSpeed="10" />
<vehicle id="S2N67" type="standard_car" route="S2N" depart="317.73433642653515" departLane="random" departSpeed="10" />
<vehicle id="W2E68" type="standard_car" route="W2E" depart="342.31696339842694" departLane="random" departSpeed="10" />
<vehicle id="S2N69" type="standard_car" route="S2N" depart="343.23283780059757" departLane="random" departSpeed="10" />
<vehicle id="W2E70" type="standard_car" route="W2E" depart="370.541476222723" departLane="random" departSpeed="10" />
<vehicle id="E2S71" type="standard_car" route="E2S" depart="372.68496016537347" departLane="random" departSpeed="10" />
<vehicle id="S2N72" type="standard_car" route="S2N" depart="380.1558866657389" departLane="random" departSpeed="10" />
<vehicle id="S2N73" type="standard_car" route="S2N" depart="389.8621973348889" departLane="random" departSpeed="10" />
<vehicle id="N2E74" type="standard_car" route="N2E" depart="400.0" departLane="random" departSpeed="10" />
</routes>
