<?xml version="1.0" encoding="UTF-8"?>

            <routes xmlns:xsi="http://www.w3.org/2001/XMLSchema-instance">
   
            <vType accel="1.0" decel="4.5" id="standard_car" length="5.0" minGap="2.5" maxSpeed="25" sigma="0.5" />) 
            
            <route id="N2W" edges="-125514711 125514713"/>
            <route id="N2S" edges="-125514711 -125514709"/>
            <route id="N2E" edges="-125514711 -548975769"/>     
            <route id="W2N" edges="-125514713 125514711"/>
            <route id="W2E" edges="-125514713 -548975769"/>
            <route id="W2S" edges="-125514711 -125514709"/>
            <route id="S2W" edges="125514709 125514713"/>
            <route id="S2N" edges="125514709 125514711"/>
            <route id="S2E" edges="-125514711 -548975769"/>
            <route id="E2S" edges="548975769 -125514709"/>
            <route id="E2W" edges="548975769 125514713"/>
            <route id="E2N" edges="548975769 125514711"/>
            
<vehicle id="E2S0" type="standard_car" route="E2S" depart="36.94551658810187" departLane="random" departSpeed="10" />
<vehicle id="S2N1" type="standard_car" route="S2N" depart="43.108883225079225" departLane="random" departSpeed="10" />
<vehicle id="S2N2" type="standard_car" route="S2N" depart="44.22036255514126" departLane="random" departSpeed="10" />
<vehicle id="W2E3" type="standard_car" route="W2E" depart="59.15800769577023" departLane="random" departSpeed="10" />
<vehicle id="S2N4" type="standard_car" route="S2N" depart="62.32780798942353" departLane="random" departSpeed="10" />
<vehicle id="S2W5" type="standard_car" route="S2W" depart="63.37194929012449" departLane="random" departSpeed="10" />
<vehicle id="S2W6" type="standard_car" route="S2W" depart="63.78331284272771" departLane="random" departSpeed="10" />
<vehicle id="E2S7" type="standard_car" route="E2S" depart="66.28901330412525" departLane="random" departSpeed="10" />
<vehicle id="E2W8" type="standard_car" route="E2W" depart="77.55165000169933" departLane="random" departSpeed="10" />
<vehicle id="S2N9" type="standard_car" route="S2N" depart="80.66970770971308" departLane="random" departSpeed="10" />
<vehicle id="S2W10" type="standard_car" route="S2W" depart="89.65038224375309" departLane="random" departSpeed="10" />
<vehicle id="E2N11" type="standard_car" route="E2N" depart="93.6407685945604" departLane="random" departSpeed="10" />
<vehicle id="S2W12" type="standard_car" route="S2W" depart="93.85955902651358" departLane="random" departSpeed="10" />
<vehicle id="S2E13" type="standard_car" route="S2E" depart="101.61201959693905" departLane="random" departSpeed="10" />
<vehicle id="S2E14" type="standard_car" route="S2E" depart="109.03849996661812" departLane="random" departSpeed="10" />
<vehicle id="E2W15" type="standard_car" route="E2W" depart="118.03274691748936" departLane="random" departSpeed="10" />
<vehicle id="S2N16" type="standard_car" route="S2N" depart="131.96734180158253" departLane="random" departSpeed="10" />
<vehicle id="W2E17" type="standard_car" route="W2E" depart="147.23665703764254" departLane="random" departSpeed="10" />
<vehicle id="W2E18" type="standard_car" route="W2E" depart="148.5316079337647" departLane="random" departSpeed="10" />
<vehicle id="W2N19" type="standard_car" route="W2N" depart="149.9884883419054" departLane="random" departSpeed="10" />
<vehicle id="N2W20" type="standard_car" route="N2W" depart="166.62010090861475" departLane="random" departSpeed="10" />
<vehicle id="N2S21" type="standard_car" route="N2S" depart="174.46703667960287" departLane="random" departSpeed="10" />
<vehicle id="W2E22" type="standard_car" route="W2E" depart="176.20575958051998" departLane="random" departSpeed="10" />
<vehicle id="N2S23" type="standard_car" route="N2S" depart="176.7420064180259" departLane="random" departSpeed="10" />
<vehicle id="E2N24" type="standard_car" route="E2N" depart="182.15879411169897" departLane="random" departSpeed="10" />
<vehicle id="W2E25" type="standard_car" route="W2E" depart="182.39542711197703" departLane="random" departSpeed="10" />
<vehicle id="N2W26" type="standard_car" route="N2W" depart="183.26715289774464" departLane="random" departSpeed="10" />
<vehicle id="S2E27" type="standard_car" route="S2E" depart="185.48101032871884" departLane="random" departSpeed="10" />
<vehicle id="S2N28" type="standard_car" route="S2N" depart="188.19169392501763" departLane="random" departSpeed="10" />
<vehicle id="E2S29" type="standard_car" route="E2S" depart="189.62691206490524" departLane="random" departSpeed="10" />
<vehicle id="E2W30" type="standard_car" route="E2W" depart="206.99276702484218" departLane="random" departSpeed="10" />
<vehicle id="N2S31" type="standard_car" route="N2S" depart="207.20512681525602" departLane="random" departSpeed="10" />
<vehicle id="N2E32" type="standard_car" route="N2E" depart="214.16552626105852" departLane="random" departSpeed="10" />
<vehicle id="N2S33" type="standard_car" route="N2S" depart="216.54927442968497" departLane="random" departSpeed="10" />
<vehicle id="E2S34" type="standard_car" route="E2S" depart="221.87800893374288" departLane="random" departSpeed="10" />
<vehicle id="N2S35" type="standard_car" route="N2S" depart="236.15739743672097" departLane="random" departSpeed="10" />
<vehicle id="E2W36" type="standard_car" route="E2W" depart="260.7496269794066" departLane="random" departSpeed="10" />
<vehicle id="W2E37" type="standard_car" route="W2E" depart="267.4334557125873" departLane="random" departSpeed="10" />
<vehicle id="W2E38" type="standard_car" route="W2E" depart="300.0" departLane="random" departSpeed="10" />
</routes>
