<?xml version="1.0" encoding="UTF-8"?>

            <routes xmlns:xsi="http://www.w3.org/2001/XMLSchema-instance">
   
            <vType accel="1.0" decel="4.5" id="standard_car" length="5.0" minGap="2.5" maxSpeed="25" sigma="0.5" />) 
            
            <route id="N2W" edges="-125514711 125514713"/>
            <route id="N2S" edges="-125514711 -125514709"/>
            <route id="N2E" edges="-125514711 -548975769"/>     
            <route id="W2N" edges="-125514713 125514711"/>
            <route id="W2E" edges="-125514713 -548975769"/>
            <route id="W2S" edges="-125514711 -125514709"/>
            <route id="S2W" edges="125514709 125514713"/>
            <route id="S2N" edges="125514709 125514711"/>
            <route id="S2E" edges="-125514711 -548975769"/>
            <route id="E2S" edges="548975769 -125514709"/>
            <route id="E2W" edges="548975769 125514713"/>
            <route id="E2N" edges="548975769 125514711"/>
            
<vehicle id="W2E0" type="standard_car" route="W2E" depart="11.013843925396861" departLane="random" departSpeed="10" />
<vehicle id="E2N1" type="standard_car" route="E2N" depart="20.796609836640403" departLane="random" departSpeed="10" />
<vehicle id="S2E2" type="standard_car" route="S2E" depart="30.508709647955452" departLane="random" departSpeed="10" />
<vehicle id="N2E3" type="standard_car" route="N2E" depart="31.198616056078897" departLane="random" departSpeed="10" />
<vehicle id="W2E4" type="standard_car" route="W2E" depart="33.07430489265821" departLane="random" departSpeed="10" />
<vehicle id="E2S5" type="standard_car" route="E2S" depart="40.715845027066685" departLane="random" departSpeed="10" />
<vehicle id="E2N6" type="standard_car" route="E2N" depart="42.235287064366965" departLane="random" departSpeed="10" />
<vehicle id="S2N7" type="standard_car" route="S2N" depart="43.98754186322121" departLane="random" departSpeed="10" />
<vehicle id="N2S8" type="standard_car" route="N2S" depart="61.81190003668453" departLane="random" departSpeed="10" />
<vehicle id="N2S9" type="standard_car" route="N2S" depart="65.44581059084766" departLane="random" departSpeed="10" />
<vehicle id="W2E10" type="standard_car" route="W2E" depart="70.6869977883697" departLane="random" departSpeed="10" />
<vehicle id="N2E11" type="standard_car" route="N2E" depart="71.43126416947091" departLane="random" departSpeed="10" />
<vehicle id="N2E12" type="standard_car" route="N2E" depart="71.76738142434978" departLane="random" departSpeed="10" />
<vehicle id="W2E13" type="standard_car" route="W2E" depart="73.55865802097958" departLane="random" departSpeed="10" />
<vehicle id="N2E14" type="standard_car" route="N2E" depart="74.90615429933898" departLane="random" departSpeed="10" />
<vehicle id="S2N15" type="standard_car" route="S2N" depart="77.4364796257384" departLane="random" departSpeed="10" />
<vehicle id="S2W16" type="standard_car" route="S2W" depart="78.14155923572243" departLane="random" departSpeed="10" />
<vehicle id="W2E17" type="standard_car" route="W2E" depart="79.15935802937938" departLane="random" departSpeed="10" />
<vehicle id="W2E18" type="standard_car" route="W2E" depart="80.83523346399208" departLane="random" departSpeed="10" />
<vehicle id="S2N19" type="standard_car" route="S2N" depart="82.63798887094254" departLane="random" departSpeed="10" />
<vehicle id="N2E20" type="standard_car" route="N2E" depart="83.29572619706738" departLane="random" departSpeed="10" />
<vehicle id="W2N21" type="standard_car" route="W2N" depart="84.84892368956719" departLane="random" departSpeed="10" />
<vehicle id="N2W22" type="standard_car" route="N2W" depart="85.14669141889776" departLane="random" departSpeed="10" />
<vehicle id="S2N23" type="standard_car" route="S2N" depart="86.98239256241423" departLane="random" departSpeed="10" />
<vehicle id="E2W24" type="standard_car" route="E2W" depart="88.75070656648529" departLane="random" departSpeed="10" />
<vehicle id="N2W25" type="standard_car" route="N2W" depart="98.24095851389136" departLane="random" departSpeed="10" />
<vehicle id="E2W26" type="standard_car" route="E2W" depart="98.87121967774716" departLane="random" departSpeed="10" />
<vehicle id="E2S27" type="standard_car" route="E2S" depart="99.37436520872217" departLane="random" departSpeed="10" />
<vehicle id="N2E28" type="standard_car" route="N2E" depart="102.04912620629192" departLane="random" departSpeed="10" />
<vehicle id="N2S29" type="standard_car" route="N2S" depart="102.68789943285752" departLane="random" departSpeed="10" />
<vehicle id="N2E30" type="standard_car" route="N2E" depart="107.26668095807838" departLane="random" departSpeed="10" />
<vehicle id="W2S31" type="standard_car" route="W2S" depart="107.60061856099765" departLane="random" departSpeed="10" />
<vehicle id="E2W32" type="standard_car" route="E2W" depart="109.11058056961477" departLane="random" departSpeed="10" />
<vehicle id="S2W33" type="standard_car" route="S2W" depart="112.59476626120778" departLane="random" departSpeed="10" />
<vehicle id="E2S34" type="standard_car" route="E2S" depart="115.47633788140665" departLane="random" departSpeed="10" />
<vehicle id="N2W35" type="standard_car" route="N2W" depart="115.64418342653049" departLane="random" departSpeed="10" />
<vehicle id="E2W36" type="standard_car" route="E2W" depart="118.62296392977564" departLane="random" departSpeed="10" />
<vehicle id="N2W37" type="standard_car" route="N2W" depart="127.10264212800807" departLane="random" departSpeed="10" />
<vehicle id="E2W38" type="standard_car" route="E2W" depart="135.7733817018159" departLane="random" departSpeed="10" />
<vehicle id="W2N39" type="standard_car" route="W2N" depart="138.73823349438078" departLane="random" departSpeed="10" />
<vehicle id="N2S40" type="standard_car" route="N2S" depart="138.82303671996493" departLane="random" departSpeed="10" />
<vehicle id="N2S41" type="standard_car" route="N2S" depart="149.10272489775534" departLane="random" departSpeed="10" />
<vehicle id="N2S42" type="standard_car" route="N2S" depart="149.74735633782657" departLane="random" departSpeed="10" />
<vehicle id="S2E43" type="standard_car" route="S2E" depart="150.03883322564076" departLane="random" departSpeed="10" />
<vehicle id="W2S44" type="standard_car" route="W2S" depart="158.07350904228096" departLane="random" departSpeed="10" />
<vehicle id="S2W45" type="standard_car" route="S2W" depart="164.50552691459782" departLane="random" departSpeed="10" />
<vehicle id="N2S46" type="standard_car" route="N2S" depart="165.66660390437076" departLane="random" departSpeed="10" />
<vehicle id="S2E47" type="standard_car" route="S2E" depart="166.63027176363937" departLane="random" departSpeed="10" />
<vehicle id="W2E48" type="standard_car" route="W2E" depart="168.55237981564616" departLane="random" departSpeed="10" />
<vehicle id="S2N49" type="standard_car" route="S2N" depart="177.07799320785173" departLane="random" departSpeed="10" />
<vehicle id="N2E50" type="standard_car" route="N2E" depart="184.2473016437154" departLane="random" departSpeed="10" />
<vehicle id="S2E51" type="standard_car" route="S2E" depart="188.89502715194055" departLane="random" departSpeed="10" />
<vehicle id="W2S52" type="standard_car" route="W2S" depart="194.98596800751866" departLane="random" departSpeed="10" />
<vehicle id="S2W53" type="standard_car" route="S2W" depart="202.9024288653777" departLane="random" departSpeed="10" />
<vehicle id="E2S54" type="standard_car" route="E2S" depart="219.9416014300971" departLane="random" departSpeed="10" />
<vehicle id="N2W55" type="standard_car" route="N2W" depart="243.4934835838482" departLane="random" departSpeed="10" />
<vehicle id="E2W56" type="standard_car" route="E2W" depart="245.99842042378572" departLane="random" departSpeed="10" />
<vehicle id="W2S57" type="standard_car" route="W2S" depart="279.26284198885486" departLane="random" departSpeed="10" />
<vehicle id="W2S58" type="standard_car" route="W2S" depart="300.0" departLane="random" departSpeed="10" />
</routes>
