<?xml version="1.0" encoding="UTF-8"?>

            <routes xmlns:xsi="http://www.w3.org/2001/XMLSchema-instance">
   
            <vType accel="1.0" decel="4.5" id="standard_car" length="5.0" minGap="2.5" maxSpeed="25" sigma="0.5" />) 
            
            <route id="N2W" edges="-125514711 125514713"/>
            <route id="N2S" edges="-125514711 -125514709"/>
            <route id="N2E" edges="-125514711 -548975769"/>     
            <route id="W2N" edges="-125514713 125514711"/>
            <route id="W2E" edges="-125514713 -548975769"/>
            <route id="W2S" edges="-125514711 -125514709"/>
            <route id="S2W" edges="125514709 125514713"/>
            <route id="S2N" edges="125514709 125514711"/>
            <route id="S2E" edges="-125514711 -548975769"/>
            <route id="E2S" edges="548975769 -125514709"/>
            <route id="E2W" edges="548975769 125514713"/>
            <route id="E2N" edges="548975769 125514711"/>
            
<vehicle id="E2W0" type="standard_car" route="E2W" depart="16.391987533969715" departLane="random" departSpeed="10" />
<vehicle id="E2N1" type="standard_car" route="E2N" depart="30.781625325949484" departLane="random" departSpeed="10" />
<vehicle id="E2W2" type="standard_car" route="E2W" depart="51.73835405408439" departLane="random" departSpeed="10" />
<vehicle id="N2S3" type="standard_car" route="N2S" depart="54.0417704728863" departLane="random" departSpeed="10" />
<vehicle id="W2E4" type="standard_car" route="W2E" depart="61.07071551552868" departLane="random" departSpeed="10" />
<vehicle id="W2S5" type="standard_car" route="W2S" depart="61.481170863866986" departLane="random" departSpeed="10" />
<vehicle id="N2S6" type="standard_car" route="N2S" depart="67.77833422658853" departLane="random" departSpeed="10" />
<vehicle id="S2N7" type="standard_car" route="S2N" depart="70.88487979976016" departLane="random" departSpeed="10" />
<vehicle id="S2N8" type="standard_car" route="S2N" depart="71.70578882992" departLane="random" departSpeed="10" />
<vehicle id="E2W9" type="standard_car" route="E2W" depart="82.02544387195843" departLane="random" departSpeed="10" />
<vehicle id="N2S10" type="standard_car" route="N2S" depart="83.15680967654777" departLane="random" departSpeed="10" />
<vehicle id="E2W11" type="standard_car" route="E2W" depart="87.11819625424685" departLane="random" departSpeed="10" />
<vehicle id="N2S12" type="standard_car" route="N2S" depart="91.4364727713148" departLane="random" departSpeed="10" />
<vehicle id="W2E13" type="standard_car" route="W2E" depart="98.82980254745095" departLane="random" departSpeed="10" />
<vehicle id="E2W14" type="standard_car" route="E2W" depart="114.36519561802298" departLane="random" departSpeed="10" />
<vehicle id="E2W15" type="standard_car" route="E2W" depart="119.52513852318467" departLane="random" departSpeed="10" />
<vehicle id="N2S16" type="standard_car" route="N2S" depart="123.84323162681447" departLane="random" departSpeed="10" />
<vehicle id="W2E17" type="standard_car" route="W2E" depart="142.08719498488557" departLane="random" departSpeed="10" />
<vehicle id="W2E18" type="standard_car" route="W2E" depart="143.62901843026293" departLane="random" departSpeed="10" />
<vehicle id="N2S19" type="standard_car" route="N2S" depart="146.15191664569846" departLane="random" departSpeed="10" />
<vehicle id="S2N20" type="standard_car" route="S2N" depart="148.32573111134502" departLane="random" departSpeed="10" />
<vehicle id="E2W21" type="standard_car" route="E2W" depart="149.80106160956626" departLane="random" departSpeed="10" />
<vehicle id="E2W22" type="standard_car" route="E2W" depart="152.43407440662594" departLane="random" departSpeed="10" />
<vehicle id="E2W23" type="standard_car" route="E2W" depart="154.5910600737502" departLane="random" departSpeed="10" />
<vehicle id="W2E24" type="standard_car" route="W2E" depart="155.75817037942033" departLane="random" departSpeed="10" />
<vehicle id="N2W25" type="standard_car" route="N2W" depart="155.91148556858755" departLane="random" departSpeed="10" />
<vehicle id="E2S26" type="standard_car" route="E2S" depart="156.41592999751745" departLane="random" departSpeed="10" />
<vehicle id="W2E27" type="standard_car" route="W2E" depart="156.4895154139346" departLane="random" departSpeed="10" />
<vehicle id="E2W28" type="standard_car" route="E2W" depart="163.80747613772743" departLane="random" departSpeed="10" />
<vehicle id="S2N29" type="standard_car" route="S2N" depart="164.08353967883912" departLane="random" departSpeed="10" />
<vehicle id="S2N30" type="standard_car" route="S2N" depart="164.27063824711897" departLane="random" departSpeed="10" />
<vehicle id="S2N31" type="standard_car" route="S2N" depart="164.5261360053397" departLane="random" departSpeed="10" />
<vehicle id="S2W32" type="standard_car" route="S2W" depart="165.34933766031438" departLane="random" departSpeed="10" />
<vehicle id="E2W33" type="standard_car" route="E2W" depart="165.91100502796635" departLane="random" departSpeed="10" />
<vehicle id="E2W34" type="standard_car" route="E2W" depart="170.49628594206763" departLane="random" departSpeed="10" />
<vehicle id="S2N35" type="standard_car" route="S2N" depart="172.04109274772057" departLane="random" departSpeed="10" />
<vehicle id="W2E36" type="standard_car" route="W2E" depart="173.10536678184812" departLane="random" departSpeed="10" />
<vehicle id="W2E37" type="standard_car" route="W2E" depart="178.21133920104552" departLane="random" departSpeed="10" />
<vehicle id="W2N38" type="standard_car" route="W2N" depart="182.34202630241376" departLane="random" departSpeed="10" />
<vehicle id="W2E39" type="standard_car" route="W2E" depart="187.3228235231676" departLane="random" departSpeed="10" />
<vehicle id="W2E40" type="standard_car" route="W2E" depart="190.70553789237832" departLane="random" departSpeed="10" />
<vehicle id="W2E41" type="standard_car" route="W2E" depart="191.3407976199417" departLane="random" departSpeed="10" />
<vehicle id="N2S42" type="standard_car" route="N2S" depart="191.84962612462587" departLane="random" departSpeed="10" />
<vehicle id="S2N43" type="standard_car" route="S2N" depart="195.75114481165375" departLane="random" departSpeed="10" />
<vehicle id="S2N44" type="standard_car" route="S2N" depart="207.72130805713246" departLane="random" departSpeed="10" />
<vehicle id="E2W45" type="standard_car" route="E2W" depart="209.79642078926003" departLane="random" departSpeed="10" />
<vehicle id="N2S46" type="standard_car" route="N2S" depart="211.19362321181106" departLane="random" departSpeed="10" />
<vehicle id="S2N47" type="standard_car" route="S2N" depart="223.2985836421773" departLane="random" departSpeed="10" />
<vehicle id="N2S48" type="standard_car" route="N2S" depart="236.01372479221325" departLane="random" departSpeed="10" />
<vehicle id="N2S49" type="standard_car" route="N2S" depart="245.57445248558483" departLane="random" departSpeed="10" />
<vehicle id="E2W50" type="standard_car" route="E2W" depart="245.6795549842149" departLane="random" departSpeed="10" />
<vehicle id="W2E51" type="standard_car" route="W2E" depart="248.05709420796092" departLane="random" departSpeed="10" />
<vehicle id="S2N52" type="standard_car" route="S2N" depart="254.32712100574722" departLane="random" departSpeed="10" />
<vehicle id="W2E53" type="standard_car" route="W2E" depart="271.86061006289253" departLane="random" departSpeed="10" />
<vehicle id="N2S54" type="standard_car" route="N2S" depart="285.04608445377875" departLane="random" departSpeed="10" />
<vehicle id="S2N55" type="standard_car" route="S2N" depart="289.4005417105709" departLane="random" departSpeed="10" />
<vehicle id="N2S56" type="standard_car" route="N2S" depart="292.8996014357192" departLane="random" departSpeed="10" />
<vehicle id="E2S57" type="standard_car" route="E2S" depart="302.62666646863914" departLane="random" departSpeed="10" />
<vehicle id="E2N58" type="standard_car" route="E2N" depart="310.85607916744357" departLane="random" departSpeed="10" />
<vehicle id="E2W59" type="standard_car" route="E2W" depart="312.6545818509147" departLane="random" departSpeed="10" />
<vehicle id="W2E60" type="standard_car" route="W2E" depart="315.42241916517656" departLane="random" departSpeed="10" />
<vehicle id="N2E61" type="standard_car" route="N2E" depart="317.7394143434539" departLane="random" departSpeed="10" />
<vehicle id="S2N62" type="standard_car" route="S2N" depart="320.51063554645094" departLane="random" departSpeed="10" />
<vehicle id="N2S63" type="standard_car" route="N2S" depart="326.18223242217334" departLane="random" departSpeed="10" />
<vehicle id="S2W64" type="standard_car" route="S2W" depart="327.78897464847705" departLane="random" departSpeed="10" />
<vehicle id="N2S65" type="standard_car" route="N2S" depart="330.268710870273" departLane="random" departSpeed="10" />
<vehicle id="N2S66" type="standard_car" route="N2S" depart="335.27987305563096" departLane="random" departSpeed="10" />
<vehicle id="N2S67" type="standard_car" route="N2S" depart="342.077726718918" departLane="random" departSpeed="10" />
<vehicle id="W2E68" type="standard_car" route="W2E" depart="351.23885122085346" departLane="random" departSpeed="10" />
<vehicle id="W2E69" type="standard_car" route="W2E" depart="353.4069816529596" departLane="random" departSpeed="10" />
<vehicle id="N2S70" type="standard_car" route="N2S" depart="359.4348360808188" departLane="random" departSpeed="10" />
<vehicle id="E2W71" type="standard_car" route="E2W" depart="376.1925263952314" departLane="random" departSpeed="10" />
<vehicle id="E2W72" type="standard_car" route="E2W" depart="394.80327172887786" departLane="random" departSpeed="10" />
<vehicle id="W2E73" type="standard_car" route="W2E" depart="395.38575730975367" departLane="random" departSpeed="10" />
<vehicle id="W2S74" type="standard_car" route="W2S" depart="400.0" departLane="random" departSpeed="10" />
</routes>
