<?xml version="1.0" encoding="UTF-8"?>

            <routes xmlns:xsi="http://www.w3.org/2001/XMLSchema-instance">
   
            <vType accel="1.0" decel="4.5" id="standard_car" length="5.0" minGap="2.5" maxSpeed="25" sigma="0.5" />) 
            
            <route id="N2W" edges="-125514711 125514713"/>
            <route id="N2S" edges="-125514711 -125514709"/>
            <route id="N2E" edges="-125514711 -548975769"/>     
            <route id="W2N" edges="-125514713 125514711"/>
            <route id="W2E" edges="-125514713 -548975769"/>
            <route id="W2S" edges="-125514711 -125514709"/>
            <route id="S2W" edges="125514709 125514713"/>
            <route id="S2N" edges="125514709 125514711"/>
            <route id="S2E" edges="-125514711 -548975769"/>
            <route id="E2S" edges="548975769 -125514709"/>
            <route id="E2W" edges="548975769 125514713"/>
            <route id="E2N" edges="548975769 125514711"/>
            
<vehicle id="N2S0" type="standard_car" route="N2S" depart="23.77586121411076" departLane="random" departSpeed="10" />
<vehicle id="N2S1" type="standard_car" route="N2S" depart="37.727933059801515" departLane="random" departSpeed="10" />
<vehicle id="S2N2" type="standard_car" route="S2N" depart="42.85058932755629" departLane="random" departSpeed="10" />
<vehicle id="N2E3" type="standard_car" route="N2E" depart="44.10103142457113" departLane="random" departSpeed="10" />
<vehicle id="S2N4" type="standard_car" route="S2N" depart="46.371352330703516" departLane="random" departSpeed="10" />
<vehicle id="E2S5" type="standard_car" route="E2S" depart="50.733543117888814" departLane="random" departSpeed="10" />
<vehicle id="S2N6" type="standard_car" route="S2N" depart="54.894999318986315" departLane="random" departSpeed="10" />
<vehicle id="E2W7" type="standard_car" route="E2W" depart="62.343259665417385" departLane="random" departSpeed="10" />
<vehicle id="E2W8" type="standard_car" route="E2W" depart="62.41956204710933" departLane="random" departSpeed="10" />
<vehicle id="W2E9" type="standard_car" route="W2E" depart="63.54194978524301" departLane="random" departSpeed="10" />
<vehicle id="S2E10" type="standard_car" route="S2E" depart="76.40311777564787" departLane="random" departSpeed="10" />
<vehicle id="N2S11" type="standard_car" route="N2S" depart="85.4605487071566" departLane="random" departSpeed="10" />
<vehicle id="E2S12" type="standard_car" route="E2S" depart="87.71245771882278" departLane="random" departSpeed="10" />
<vehicle id="W2E13" type="standard_car" route="W2E" depart="94.60948986326827" departLane="random" departSpeed="10" />
<vehicle id="W2E14" type="standard_car" route="W2E" depart="94.853971077578" departLane="random" departSpeed="10" />
<vehicle id="N2S15" type="standard_car" route="N2S" depart="96.12319232325129" departLane="random" departSpeed="10" />
<vehicle id="E2W16" type="standard_car" route="E2W" depart="104.3292992101251" departLane="random" departSpeed="10" />
<vehicle id="W2E17" type="standard_car" route="W2E" depart="109.00792369167107" departLane="random" departSpeed="10" />
<vehicle id="S2N18" type="standard_car" route="S2N" depart="119.15468575895349" departLane="random" departSpeed="10" />
<vehicle id="E2W19" type="standard_car" route="E2W" depart="119.2072167921639" departLane="random" departSpeed="10" />
<vehicle id="E2W20" type="standard_car" route="E2W" depart="119.27388558536353" departLane="random" departSpeed="10" />
<vehicle id="N2S21" type="standard_car" route="N2S" depart="119.73739855164371" departLane="random" departSpeed="10" />
<vehicle id="W2E22" type="standard_car" route="W2E" depart="121.92654816191437" departLane="random" departSpeed="10" />
<vehicle id="W2E23" type="standard_car" route="W2E" depart="123.25094315319669" departLane="random" departSpeed="10" />
<vehicle id="N2E24" type="standard_car" route="N2E" depart="124.10188470851615" departLane="random" departSpeed="10" />
<vehicle id="W2E25" type="standard_car" route="W2E" depart="125.48569039641811" departLane="random" departSpeed="10" />
<vehicle id="W2E26" type="standard_car" route="W2E" depart="126.48646735340661" departLane="random" departSpeed="10" />
<vehicle id="N2E27" type="standard_car" route="N2E" depart="128.4096206705813" departLane="random" departSpeed="10" />
<vehicle id="S2N28" type="standard_car" route="S2N" depart="131.21220081779873" departLane="random" departSpeed="10" />
<vehicle id="W2E29" type="standard_car" route="W2E" depart="133.54480043083902" departLane="random" departSpeed="10" />
<vehicle id="N2S30" type="standard_car" route="N2S" depart="135.0795956772147" departLane="random" departSpeed="10" />
<vehicle id="E2S31" type="standard_car" route="E2S" depart="143.0986834558005" departLane="random" departSpeed="10" />
<vehicle id="E2W32" type="standard_car" route="E2W" depart="146.26165753509866" departLane="random" departSpeed="10" />
<vehicle id="S2N33" type="standard_car" route="S2N" depart="149.52845014482224" departLane="random" departSpeed="10" />
<vehicle id="N2S34" type="standard_car" route="N2S" depart="150.6701073303177" departLane="random" departSpeed="10" />
<vehicle id="W2E35" type="standard_car" route="W2E" depart="151.01566066620077" departLane="random" departSpeed="10" />
<vehicle id="W2E36" type="standard_car" route="W2E" depart="152.64080346834018" departLane="random" departSpeed="10" />
<vehicle id="E2N37" type="standard_car" route="E2N" depart="154.59873253527098" departLane="random" departSpeed="10" />
<vehicle id="N2S38" type="standard_car" route="N2S" depart="158.55093515232124" departLane="random" departSpeed="10" />
<vehicle id="E2W39" type="standard_car" route="E2W" depart="161.82096218173209" departLane="random" departSpeed="10" />
<vehicle id="S2N40" type="standard_car" route="S2N" depart="167.57859494205317" departLane="random" departSpeed="10" />
<vehicle id="W2E41" type="standard_car" route="W2E" depart="171.43121088556435" departLane="random" departSpeed="10" />
<vehicle id="E2S42" type="standard_car" route="E2S" depart="173.0697792858815" departLane="random" departSpeed="10" />
<vehicle id="E2W43" type="standard_car" route="E2W" depart="176.9063720302844" departLane="random" departSpeed="10" />
<vehicle id="S2N44" type="standard_car" route="S2N" depart="178.9195331502918" departLane="random" departSpeed="10" />
<vehicle id="S2N45" type="standard_car" route="S2N" depart="183.0869772997453" departLane="random" departSpeed="10" />
<vehicle id="W2E46" type="standard_car" route="W2E" depart="185.71002019203792" departLane="random" departSpeed="10" />
<vehicle id="E2W47" type="standard_car" route="E2W" depart="187.80004213954845" departLane="random" departSpeed="10" />
<vehicle id="N2W48" type="standard_car" route="N2W" depart="191.09066584343947" departLane="random" departSpeed="10" />
<vehicle id="S2E49" type="standard_car" route="S2E" depart="195.5881265512482" departLane="random" departSpeed="10" />
<vehicle id="W2E50" type="standard_car" route="W2E" depart="197.68582136041982" departLane="random" departSpeed="10" />
<vehicle id="E2W51" type="standard_car" route="E2W" depart="199.5081924295892" departLane="random" departSpeed="10" />
<vehicle id="S2W52" type="standard_car" route="S2W" depart="200.49670295986567" departLane="random" departSpeed="10" />
<vehicle id="S2N53" type="standard_car" route="S2N" depart="202.65036678470057" departLane="random" departSpeed="10" />
<vehicle id="W2S54" type="standard_car" route="W2S" depart="206.129458019004" departLane="random" departSpeed="10" />
<vehicle id="N2S55" type="standard_car" route="N2S" depart="213.38220564660935" departLane="random" departSpeed="10" />
<vehicle id="W2E56" type="standard_car" route="W2E" depart="216.37187083866064" departLane="random" departSpeed="10" />
<vehicle id="E2W57" type="standard_car" route="E2W" depart="217.30491573791917" departLane="random" departSpeed="10" />
<vehicle id="N2S58" type="standard_car" route="N2S" depart="224.95492727302437" departLane="random" departSpeed="10" />
<vehicle id="S2N59" type="standard_car" route="S2N" depart="228.08133325976794" departLane="random" departSpeed="10" />
<vehicle id="E2W60" type="standard_car" route="E2W" depart="229.93011598157008" departLane="random" departSpeed="10" />
<vehicle id="E2W61" type="standard_car" route="E2W" depart="234.48725044713262" departLane="random" departSpeed="10" />
<vehicle id="N2S62" type="standard_car" route="N2S" depart="243.54591024932705" departLane="random" departSpeed="10" />
<vehicle id="S2N63" type="standard_car" route="S2N" depart="250.99468358383322" departLane="random" departSpeed="10" />
<vehicle id="W2S64" type="standard_car" route="W2S" depart="252.94782163450736" departLane="random" departSpeed="10" />
<vehicle id="W2E65" type="standard_car" route="W2E" depart="260.6627175462504" departLane="random" departSpeed="10" />
<vehicle id="S2N66" type="standard_car" route="S2N" depart="261.29695418454077" departLane="random" departSpeed="10" />
<vehicle id="N2S67" type="standard_car" route="N2S" depart="264.2950004655527" departLane="random" departSpeed="10" />
<vehicle id="N2S68" type="standard_car" route="N2S" depart="267.7245827790574" departLane="random" departSpeed="10" />
<vehicle id="E2W69" type="standard_car" route="E2W" depart="267.7460652595598" departLane="random" departSpeed="10" />
<vehicle id="S2N70" type="standard_car" route="S2N" depart="286.0342244062749" departLane="random" departSpeed="10" />
<vehicle id="W2E71" type="standard_car" route="W2E" depart="303.74345567558123" departLane="random" departSpeed="10" />
<vehicle id="E2W72" type="standard_car" route="E2W" depart="304.5980244634244" departLane="random" departSpeed="10" />
<vehicle id="W2E73" type="standard_car" route="W2E" depart="321.73863023412235" departLane="random" departSpeed="10" />
<vehicle id="S2N74" type="standard_car" route="S2N" depart="400.0" departLane="random" departSpeed="10" />
</routes>
