<?xml version="1.0" encoding="UTF-8"?>

            <routes xmlns:xsi="http://www.w3.org/2001/XMLSchema-instance">
   
            <vType accel="1.0" decel="4.5" id="standard_car" length="5.0" minGap="2.5" maxSpeed="25" sigma="0.5" />) 
            
            <route id="N2W" edges="-125514711 125514713"/>
            <route id="N2S" edges="-125514711 -125514709"/>
            <route id="N2E" edges="-125514711 -548975769"/>     
            <route id="W2N" edges="-125514713 125514711"/>
            <route id="W2E" edges="-125514713 -548975769"/>
            <route id="W2S" edges="-125514711 -125514709"/>
            <route id="S2W" edges="125514709 125514713"/>
            <route id="S2N" edges="125514709 125514711"/>
            <route id="S2E" edges="-125514711 -548975769"/>
            <route id="E2S" edges="548975769 -125514709"/>
            <route id="E2W" edges="548975769 125514713"/>
            <route id="E2N" edges="548975769 125514711"/>
            
<vehicle id="E2N0" type="standard_car" route="E2N" depart="13.034040156894056" departLane="random" departSpeed="10" />
<vehicle id="S2N1" type="standard_car" route="S2N" depart="46.53022825789017" departLane="random" departSpeed="10" />
<vehicle id="W2E2" type="standard_car" route="W2E" depart="48.267045647296094" departLane="random" departSpeed="10" />
<vehicle id="E2W3" type="standard_car" route="E2W" depart="60.202222614211884" departLane="random" departSpeed="10" />
<vehicle id="E2W4" type="standard_car" route="E2W" depart="61.24374138624592" departLane="random" departSpeed="10" />
<vehicle id="E2W5" type="standard_car" route="E2W" depart="65.60131855187981" departLane="random" departSpeed="10" />
<vehicle id="E2W6" type="standard_car" route="E2W" depart="77.14241193301012" departLane="random" departSpeed="10" />
<vehicle id="N2E7" type="standard_car" route="N2E" depart="77.60872744958172" departLane="random" departSpeed="10" />
<vehicle id="E2W8" type="standard_car" route="E2W" depart="83.29892428441416" departLane="random" departSpeed="10" />
<vehicle id="E2W9" type="standard_car" route="E2W" depart="83.93393226076323" departLane="random" departSpeed="10" />
<vehicle id="E2W10" type="standard_car" route="E2W" depart="89.87488526627382" departLane="random" departSpeed="10" />
<vehicle id="S2N11" type="standard_car" route="S2N" depart="89.89353036277362" departLane="random" departSpeed="10" />
<vehicle id="S2W12" type="standard_car" route="S2W" depart="91.85572673463393" departLane="random" departSpeed="10" />
<vehicle id="E2W13" type="standard_car" route="E2W" depart="96.6106298650382" departLane="random" departSpeed="10" />
<vehicle id="S2N14" type="standard_car" route="S2N" depart="99.34376451132373" departLane="random" departSpeed="10" />
<vehicle id="W2E15" type="standard_car" route="W2E" depart="102.95077491388855" departLane="random" departSpeed="10" />
<vehicle id="N2W16" type="standard_car" route="N2W" depart="103.36577294402277" departLane="random" departSpeed="10" />
<vehicle id="E2W17" type="standard_car" route="E2W" depart="106.31778209024667" departLane="random" departSpeed="10" />
<vehicle id="S2N18" type="standard_car" route="S2N" depart="107.52427695005449" departLane="random" departSpeed="10" />
<vehicle id="S2N19" type="standard_car" route="S2N" depart="110.5814202883207" departLane="random" departSpeed="10" />
<vehicle id="N2S20" type="standard_car" route="N2S" depart="118.19217857269544" departLane="random" departSpeed="10" />
<vehicle id="W2N21" type="standard_car" route="W2N" depart="118.64864437069448" departLane="random" departSpeed="10" />
<vehicle id="W2N22" type="standard_car" route="W2N" depart="120.51395587061144" departLane="random" departSpeed="10" />
<vehicle id="N2W23" type="standard_car" route="N2W" depart="124.69609969381636" departLane="random" departSpeed="10" />
<vehicle id="W2E24" type="standard_car" route="W2E" depart="127.49157012490888" departLane="random" departSpeed="10" />
<vehicle id="S2N25" type="standard_car" route="S2N" depart="130.93873984711018" departLane="random" departSpeed="10" />
<vehicle id="N2S26" type="standard_car" route="N2S" depart="131.54085592433378" departLane="random" departSpeed="10" />
<vehicle id="E2W27" type="standard_car" route="E2W" depart="137.80901378820965" departLane="random" departSpeed="10" />
<vehicle id="N2S28" type="standard_car" route="N2S" depart="138.67382248441757" departLane="random" departSpeed="10" />
<vehicle id="W2E29" type="standard_car" route="W2E" depart="147.74133181207858" departLane="random" departSpeed="10" />
<vehicle id="N2S30" type="standard_car" route="N2S" depart="149.53211416976185" departLane="random" departSpeed="10" />
<vehicle id="N2S31" type="standard_car" route="N2S" depart="151.61030405452613" departLane="random" departSpeed="10" />
<vehicle id="E2S32" type="standard_car" route="E2S" depart="156.48229903808408" departLane="random" departSpeed="10" />
<vehicle id="W2E33" type="standard_car" route="W2E" depart="168.0702290850065" departLane="random" departSpeed="10" />
<vehicle id="E2W34" type="standard_car" route="E2W" depart="172.6249469728143" departLane="random" departSpeed="10" />
<vehicle id="W2E35" type="standard_car" route="W2E" depart="172.77931094720464" departLane="random" departSpeed="10" />
<vehicle id="S2N36" type="standard_car" route="S2N" depart="174.2288642781498" departLane="random" departSpeed="10" />
<vehicle id="N2S37" type="standard_car" route="N2S" depart="174.8998984162856" departLane="random" departSpeed="10" />
<vehicle id="S2N38" type="standard_car" route="S2N" depart="176.9455765333954" departLane="random" departSpeed="10" />
<vehicle id="E2W39" type="standard_car" route="E2W" depart="193.3534681550383" departLane="random" departSpeed="10" />
<vehicle id="E2W40" type="standard_car" route="E2W" depart="194.10515180072488" departLane="random" departSpeed="10" />
<vehicle id="N2S41" type="standard_car" route="N2S" depart="194.16860694491484" departLane="random" departSpeed="10" />
<vehicle id="W2E42" type="standard_car" route="W2E" depart="199.70332096821977" departLane="random" departSpeed="10" />
<vehicle id="S2E43" type="standard_car" route="S2E" depart="200.23346851508342" departLane="random" departSpeed="10" />
<vehicle id="S2N44" type="standard_car" route="S2N" depart="203.0245270811223" departLane="random" departSpeed="10" />
<vehicle id="W2S45" type="standard_car" route="W2S" depart="208.05011085385675" departLane="random" departSpeed="10" />
<vehicle id="E2W46" type="standard_car" route="E2W" depart="213.900360845463" departLane="random" departSpeed="10" />
<vehicle id="E2W47" type="standard_car" route="E2W" depart="220.22177656841927" departLane="random" departSpeed="10" />
<vehicle id="S2N48" type="standard_car" route="S2N" depart="221.1634199962773" departLane="random" departSpeed="10" />
<vehicle id="S2N49" type="standard_car" route="S2N" depart="223.40711038974618" departLane="random" departSpeed="10" />
<vehicle id="S2N50" type="standard_car" route="S2N" depart="225.90443589959938" departLane="random" departSpeed="10" />
<vehicle id="N2S51" type="standard_car" route="N2S" depart="232.96114833805302" departLane="random" departSpeed="10" />
<vehicle id="S2N52" type="standard_car" route="S2N" depart="233.65502394390214" departLane="random" departSpeed="10" />
<vehicle id="W2S53" type="standard_car" route="W2S" depart="236.2427781181314" departLane="random" departSpeed="10" />
<vehicle id="S2N54" type="standard_car" route="S2N" depart="236.26356765814194" departLane="random" departSpeed="10" />
<vehicle id="S2N55" type="standard_car" route="S2N" depart="236.34276793922808" departLane="random" departSpeed="10" />
<vehicle id="S2N56" type="standard_car" route="S2N" depart="238.33403089371376" departLane="random" departSpeed="10" />
<vehicle id="S2N57" type="standard_car" route="S2N" depart="244.00407226932552" departLane="random" departSpeed="10" />
<vehicle id="E2W58" type="standard_car" route="E2W" depart="244.7922226349541" departLane="random" departSpeed="10" />
<vehicle id="E2N59" type="standard_car" route="E2N" depart="248.11039411558937" departLane="random" departSpeed="10" />
<vehicle id="E2S60" type="standard_car" route="E2S" depart="249.30059481341087" departLane="random" departSpeed="10" />
<vehicle id="N2W61" type="standard_car" route="N2W" depart="255.54875353825938" departLane="random" departSpeed="10" />
<vehicle id="E2W62" type="standard_car" route="E2W" depart="266.1499767679145" departLane="random" departSpeed="10" />
<vehicle id="S2N63" type="standard_car" route="S2N" depart="269.40092871078014" departLane="random" departSpeed="10" />
<vehicle id="E2W64" type="standard_car" route="E2W" depart="270.44335023585927" departLane="random" departSpeed="10" />
<vehicle id="W2N65" type="standard_car" route="W2N" depart="272.68178982578826" departLane="random" departSpeed="10" />
<vehicle id="E2W66" type="standard_car" route="E2W" depart="274.74726131240703" departLane="random" departSpeed="10" />
<vehicle id="E2W67" type="standard_car" route="E2W" depart="291.3182747061105" departLane="random" departSpeed="10" />
<vehicle id="E2W68" type="standard_car" route="E2W" depart="302.4249078389626" departLane="random" departSpeed="10" />
<vehicle id="S2N69" type="standard_car" route="S2N" depart="308.72445327233964" departLane="random" departSpeed="10" />
<vehicle id="W2E70" type="standard_car" route="W2E" depart="311.01197990725456" departLane="random" departSpeed="10" />
<vehicle id="W2E71" type="standard_car" route="W2E" depart="314.69636342682986" departLane="random" departSpeed="10" />
<vehicle id="W2E72" type="standard_car" route="W2E" depart="316.48873643615946" departLane="random" departSpeed="10" />
<vehicle id="W2E73" type="standard_car" route="W2E" depart="383.34722622841576" departLane="random" departSpeed="10" />
<vehicle id="W2N74" type="standard_car" route="W2N" depart="400.0" departLane="random" departSpeed="10" />
</routes>
