<?xml version="1.0" encoding="UTF-8"?>

            <routes xmlns:xsi="http://www.w3.org/2001/XMLSchema-instance">
                  
            <vType accel="1.0" decel="4.5" id="standard_car" length="5.0" minGap="2.5" maxSpeed="25" sigma="0.5" />) 
            
            <route id="N2W" edges="-125514711 125514713"/>
            <route id="N2S" edges="-125514711 -125514709"/>
            <route id="N2E" edges="-125514711 -548975769"/>     
            <route id="W2N" edges="-125514713 125514711"/>
            <route id="W2E" edges="-125514713 -548975769"/>
            <route id="W2S" edges="-125514711 -125514709"/>
            <route id="S2W" edges="125514709 125514713"/>
            <route id="S2N" edges="125514709 125514711"/>
            <route id="S2E" edges="-125514711 -548975769"/>
            <route id="E2S" edges="548975769 -125514709"/>
            <route id="E2W" edges="548975769 125514713"/>
            <route id="E2N" edges="548975769 125514711"/>
            
<vehicle id="N2S0" type="standard_car" route="N2S" depart="2.3895450177744233" departLane="random" departSpeed="10" />
<vehicle id="E2W1" type="standard_car" route="E2W" depart="7.393214140154596" departLane="random" departSpeed="10" />
<vehicle id="N2S2" type="standard_car" route="N2S" depart="8.197389138500313" departLane="random" departSpeed="10" />
<vehicle id="W2E3" type="standard_car" route="W2E" depart="10.499354398017854" departLane="random" departSpeed="10" />
<vehicle id="W2E4" type="standard_car" route="W2E" depart="12.334268495047356" departLane="random" departSpeed="10" />
<vehicle id="W2E5" type="standard_car" route="W2E" depart="15.448466325693172" departLane="random" departSpeed="10" />
<vehicle id="W2E6" type="standard_car" route="W2E" depart="15.525652903215695" departLane="random" departSpeed="10" />
<vehicle id="S2N7" type="standard_car" route="S2N" depart="16.10924331310983" departLane="random" departSpeed="10" />
<vehicle id="N2E8" type="standard_car" route="N2E" depart="16.739996804059402" departLane="random" departSpeed="10" />
<vehicle id="W2E9" type="standard_car" route="W2E" depart="17.59217492747363" departLane="random" departSpeed="10" />
<vehicle id="N2S10" type="standard_car" route="N2S" depart="18.55433866822845" departLane="random" departSpeed="10" />
<vehicle id="S2N11" type="standard_car" route="S2N" depart="19.107266324126403" departLane="random" departSpeed="10" />
<vehicle id="N2S12" type="standard_car" route="N2S" depart="19.84968867356" departLane="random" departSpeed="10" />
<vehicle id="E2W13" type="standard_car" route="E2W" depart="20.05410574212379" departLane="random" departSpeed="10" />
<vehicle id="W2E14" type="standard_car" route="W2E" depart="22.16072033010511" departLane="random" departSpeed="10" />
<vehicle id="W2N15" type="standard_car" route="W2N" depart="22.917293160294943" departLane="random" departSpeed="10" />
<vehicle id="W2E16" type="standard_car" route="W2E" depart="25.967466311370345" departLane="random" departSpeed="10" />
<vehicle id="S2N17" type="standard_car" route="S2N" depart="26.76321194887378" departLane="random" departSpeed="10" />
<vehicle id="N2S18" type="standard_car" route="N2S" depart="26.990032916816318" departLane="random" departSpeed="10" />
<vehicle id="E2W19" type="standard_car" route="E2W" depart="28.626593604318053" departLane="random" departSpeed="10" />
<vehicle id="N2S20" type="standard_car" route="N2S" depart="28.651246683558618" departLane="random" departSpeed="10" />
<vehicle id="E2W21" type="standard_car" route="E2W" depart="28.751887631221962" departLane="random" departSpeed="10" />
<vehicle id="E2N22" type="standard_car" route="E2N" depart="30.23654863965509" departLane="random" departSpeed="10" />
<vehicle id="E2W23" type="standard_car" route="E2W" depart="30.283782570111867" departLane="random" departSpeed="10" />
<vehicle id="E2W24" type="standard_car" route="E2W" depart="30.360797464714658" departLane="random" departSpeed="10" />
<vehicle id="N2S25" type="standard_car" route="N2S" depart="30.47611577085473" departLane="random" departSpeed="10" />
<vehicle id="N2S26" type="standard_car" route="N2S" depart="30.49920228638692" departLane="random" departSpeed="10" />
<vehicle id="N2E27" type="standard_car" route="N2E" depart="30.628480291119697" departLane="random" departSpeed="10" />
<vehicle id="N2S28" type="standard_car" route="N2S" depart="31.557331179554716" departLane="random" departSpeed="10" />
<vehicle id="W2S29" type="standard_car" route="W2S" depart="31.788197873070228" departLane="random" departSpeed="10" />
<vehicle id="N2S30" type="standard_car" route="N2S" depart="32.54394488417092" departLane="random" departSpeed="10" />
<vehicle id="N2S31" type="standard_car" route="N2S" depart="33.10812916840275" departLane="random" departSpeed="10" />
<vehicle id="S2N32" type="standard_car" route="S2N" depart="34.169766622043596" departLane="random" departSpeed="10" />
<vehicle id="S2N33" type="standard_car" route="S2N" depart="34.25451203969129" departLane="random" departSpeed="10" />
<vehicle id="S2N34" type="standard_car" route="S2N" depart="34.29384675867559" departLane="random" departSpeed="10" />
<vehicle id="N2S35" type="standard_car" route="N2S" depart="34.5213881197756" departLane="random" departSpeed="10" />
<vehicle id="N2S36" type="standard_car" route="N2S" depart="34.899529363370114" departLane="random" departSpeed="10" />
<vehicle id="W2E37" type="standard_car" route="W2E" depart="34.94402650414625" departLane="random" departSpeed="10" />
<vehicle id="E2N38" type="standard_car" route="E2N" depart="35.27728773410211" departLane="random" departSpeed="10" />
<vehicle id="S2N39" type="standard_car" route="S2N" depart="36.56951367591582" departLane="random" departSpeed="10" />
<vehicle id="S2N40" type="standard_car" route="S2N" depart="36.59176857269833" departLane="random" departSpeed="10" />
<vehicle id="W2E41" type="standard_car" route="W2E" depart="36.664850383150615" departLane="random" departSpeed="10" />
<vehicle id="W2E42" type="standard_car" route="W2E" depart="36.77071957117359" departLane="random" departSpeed="10" />
<vehicle id="S2N43" type="standard_car" route="S2N" depart="36.90066513687939" departLane="random" departSpeed="10" />
<vehicle id="W2N44" type="standard_car" route="W2N" depart="37.22172149676899" departLane="random" departSpeed="10" />
<vehicle id="W2E45" type="standard_car" route="W2E" depart="37.507018881938315" departLane="random" departSpeed="10" />
<vehicle id="E2W46" type="standard_car" route="E2W" depart="37.539303619403036" departLane="random" departSpeed="10" />
<vehicle id="S2N47" type="standard_car" route="S2N" depart="37.65321049006773" departLane="random" departSpeed="10" />
<vehicle id="W2E48" type="standard_car" route="W2E" depart="37.686834578988886" departLane="random" departSpeed="10" />
<vehicle id="E2W49" type="standard_car" route="E2W" depart="37.87226005571845" departLane="random" departSpeed="10" />
<vehicle id="E2W50" type="standard_car" route="E2W" depart="37.94707823004861" departLane="random" departSpeed="10" />
<vehicle id="N2S51" type="standard_car" route="N2S" depart="38.057617295430205" departLane="random" departSpeed="10" />
<vehicle id="E2W52" type="standard_car" route="E2W" depart="38.41761059317578" departLane="random" departSpeed="10" />
<vehicle id="E2S53" type="standard_car" route="E2S" depart="38.45056325994942" departLane="random" departSpeed="10" />
<vehicle id="E2W54" type="standard_car" route="E2W" depart="38.63009095218768" departLane="random" departSpeed="10" />
<vehicle id="E2S55" type="standard_car" route="E2S" depart="40.08439794961857" departLane="random" departSpeed="10" />
<vehicle id="E2S56" type="standard_car" route="E2S" depart="40.400727163904776" departLane="random" departSpeed="10" />
<vehicle id="N2S57" type="standard_car" route="N2S" depart="40.41940390926598" departLane="random" departSpeed="10" />
<vehicle id="N2S58" type="standard_car" route="N2S" depart="40.474506143403666" departLane="random" departSpeed="10" />
<vehicle id="N2S59" type="standard_car" route="N2S" depart="41.55728842063577" departLane="random" departSpeed="10" />
<vehicle id="W2E60" type="standard_car" route="W2E" depart="42.97565931437384" departLane="random" departSpeed="10" />
<vehicle id="E2N61" type="standard_car" route="E2N" depart="43.833357506477704" departLane="random" departSpeed="10" />
<vehicle id="N2W62" type="standard_car" route="N2W" depart="44.164891150857" departLane="random" departSpeed="10" />
<vehicle id="E2W63" type="standard_car" route="E2W" depart="44.66172871456446" departLane="random" departSpeed="10" />
<vehicle id="N2S64" type="standard_car" route="N2S" depart="44.697192325250775" departLane="random" departSpeed="10" />
<vehicle id="S2N65" type="standard_car" route="S2N" depart="44.786695196111246" departLane="random" departSpeed="10" />
<vehicle id="W2E66" type="standard_car" route="W2E" depart="44.78717501671192" departLane="random" departSpeed="10" />
<vehicle id="N2W67" type="standard_car" route="N2W" depart="45.22047388566196" departLane="random" departSpeed="10" />
<vehicle id="W2E68" type="standard_car" route="W2E" depart="45.35092573250346" departLane="random" departSpeed="10" />
<vehicle id="N2E69" type="standard_car" route="N2E" depart="45.71900730321145" departLane="random" departSpeed="10" />
<vehicle id="W2E70" type="standard_car" route="W2E" depart="46.76675185854608" departLane="random" departSpeed="10" />
<vehicle id="E2W71" type="standard_car" route="E2W" depart="46.82397017006969" departLane="random" departSpeed="10" />
<vehicle id="W2S72" type="standard_car" route="W2S" depart="46.85069633693199" departLane="random" departSpeed="10" />
<vehicle id="W2E73" type="standard_car" route="W2E" depart="46.89997858886799" departLane="random" departSpeed="10" />
<vehicle id="E2N74" type="standard_car" route="E2N" depart="46.99761066626835" departLane="random" departSpeed="10" />
<vehicle id="N2S75" type="standard_car" route="N2S" depart="47.378395193574704" departLane="random" departSpeed="10" />
<vehicle id="S2E76" type="standard_car" route="S2E" depart="47.98591129553846" departLane="random" departSpeed="10" />
<vehicle id="N2S77" type="standard_car" route="N2S" depart="48.04731890742867" departLane="random" departSpeed="10" />
<vehicle id="W2E78" type="standard_car" route="W2E" depart="48.1943107123105" departLane="random" departSpeed="10" />
<vehicle id="N2S79" type="standard_car" route="N2S" depart="48.44725360439488" departLane="random" departSpeed="10" />
<vehicle id="E2S80" type="standard_car" route="E2S" depart="48.49282016178435" departLane="random" departSpeed="10" />
<vehicle id="N2S81" type="standard_car" route="N2S" depart="48.88260662326604" departLane="random" departSpeed="10" />
<vehicle id="E2W82" type="standard_car" route="E2W" depart="50.049691050590205" departLane="random" departSpeed="10" />
<vehicle id="N2S83" type="standard_car" route="N2S" depart="50.06101624455484" departLane="random" departSpeed="10" />
<vehicle id="N2S84" type="standard_car" route="N2S" depart="50.315627498998" departLane="random" departSpeed="10" />
<vehicle id="N2S85" type="standard_car" route="N2S" depart="50.76142624032326" departLane="random" departSpeed="10" />
<vehicle id="S2N86" type="standard_car" route="S2N" depart="50.830407762970374" departLane="random" departSpeed="10" />
<vehicle id="N2S87" type="standard_car" route="N2S" depart="51.00797963522684" departLane="random" departSpeed="10" />
<vehicle id="N2S88" type="standard_car" route="N2S" depart="51.25331197500399" departLane="random" departSpeed="10" />
<vehicle id="N2S89" type="standard_car" route="N2S" depart="52.143150642183336" departLane="random" departSpeed="10" />
<vehicle id="W2E90" type="standard_car" route="W2E" depart="52.32446050306543" departLane="random" departSpeed="10" />
<vehicle id="E2W91" type="standard_car" route="E2W" depart="52.338923064100086" departLane="random" departSpeed="10" />
<vehicle id="W2E92" type="standard_car" route="W2E" depart="53.23885662218667" departLane="random" departSpeed="10" />
<vehicle id="E2W93" type="standard_car" route="E2W" depart="54.24679273653176" departLane="random" departSpeed="10" />
<vehicle id="W2E94" type="standard_car" route="W2E" depart="54.4001359044046" departLane="random" departSpeed="10" />
<vehicle id="W2E95" type="standard_car" route="W2E" depart="54.514149425504264" departLane="random" departSpeed="10" />
<vehicle id="S2E96" type="standard_car" route="S2E" depart="54.70917399738465" departLane="random" departSpeed="10" />
<vehicle id="W2S97" type="standard_car" route="W2S" depart="55.064659505879156" departLane="random" departSpeed="10" />
<vehicle id="E2W98" type="standard_car" route="E2W" depart="56.17331439981148" departLane="random" departSpeed="10" />
<vehicle id="N2S99" type="standard_car" route="N2S" depart="56.81940006023321" departLane="random" departSpeed="10" />
<vehicle id="E2W100" type="standard_car" route="E2W" depart="57.91039556891256" departLane="random" departSpeed="10" />
<vehicle id="N2S101" type="standard_car" route="N2S" depart="58.72320887483691" departLane="random" departSpeed="10" />
<vehicle id="S2N102" type="standard_car" route="S2N" depart="58.73786366724785" departLane="random" departSpeed="10" />
<vehicle id="E2N103" type="standard_car" route="E2N" depart="58.784064520758406" departLane="random" departSpeed="10" />
<vehicle id="N2E104" type="standard_car" route="N2E" depart="59.17391278106881" departLane="random" departSpeed="10" />
<vehicle id="E2S105" type="standard_car" route="E2S" depart="59.17676848851565" departLane="random" departSpeed="10" />
<vehicle id="N2S106" type="standard_car" route="N2S" depart="59.626232769438495" departLane="random" departSpeed="10" />
<vehicle id="W2E107" type="standard_car" route="W2E" depart="59.967477879635034" departLane="random" departSpeed="10" />
<vehicle id="N2S108" type="standard_car" route="N2S" depart="60.38718159310433" departLane="random" departSpeed="10" />
<vehicle id="E2W109" type="standard_car" route="E2W" depart="60.431506886945485" departLane="random" departSpeed="10" />
<vehicle id="N2E110" type="standard_car" route="N2E" depart="61.292563621997466" departLane="random" departSpeed="10" />
<vehicle id="W2E111" type="standard_car" route="W2E" depart="61.49092075426288" departLane="random" departSpeed="10" />
<vehicle id="N2S112" type="standard_car" route="N2S" depart="61.59883201755287" departLane="random" departSpeed="10" />
<vehicle id="N2S113" type="standard_car" route="N2S" depart="61.61399650704985" departLane="random" departSpeed="10" />
<vehicle id="E2W114" type="standard_car" route="E2W" depart="61.68330065402646" departLane="random" departSpeed="10" />
<vehicle id="E2W115" type="standard_car" route="E2W" depart="61.98144109085929" departLane="random" departSpeed="10" />
<vehicle id="E2W116" type="standard_car" route="E2W" depart="62.78464200997866" departLane="random" departSpeed="10" />
<vehicle id="S2N117" type="standard_car" route="S2N" depart="63.329245109708424" departLane="random" departSpeed="10" />
<vehicle id="N2E118" type="standard_car" route="N2E" depart="63.601699027130444" departLane="random" departSpeed="10" />
<vehicle id="E2N119" type="standard_car" route="E2N" depart="64.11437845728842" departLane="random" departSpeed="10" />
<vehicle id="S2N120" type="standard_car" route="S2N" depart="64.37532934558534" departLane="random" departSpeed="10" />
<vehicle id="W2E121" type="standard_car" route="W2E" depart="64.45468123131167" departLane="random" departSpeed="10" />
<vehicle id="E2N122" type="standard_car" route="E2N" depart="64.61857633219607" departLane="random" departSpeed="10" />
<vehicle id="W2E123" type="standard_car" route="W2E" depart="64.73017070653444" departLane="random" departSpeed="10" />
<vehicle id="S2N124" type="standard_car" route="S2N" depart="64.78027129855397" departLane="random" departSpeed="10" />
<vehicle id="N2S125" type="standard_car" route="N2S" depart="64.79125945011612" departLane="random" departSpeed="10" />
<vehicle id="W2E126" type="standard_car" route="W2E" depart="65.32057374578746" departLane="random" departSpeed="10" />
<vehicle id="E2W127" type="standard_car" route="E2W" depart="65.5162427577805" departLane="random" departSpeed="10" />
<vehicle id="E2S128" type="standard_car" route="E2S" depart="65.69266999028876" departLane="random" departSpeed="10" />
<vehicle id="E2W129" type="standard_car" route="E2W" depart="66.22996692719747" departLane="random" departSpeed="10" />
<vehicle id="N2S130" type="standard_car" route="N2S" depart="66.23278713948261" departLane="random" departSpeed="10" />
<vehicle id="W2S131" type="standard_car" route="W2S" depart="66.26875453355468" departLane="random" departSpeed="10" />
<vehicle id="E2W132" type="standard_car" route="E2W" depart="66.926583540799" departLane="random" departSpeed="10" />
<vehicle id="S2W133" type="standard_car" route="S2W" depart="66.9697060898007" departLane="random" departSpeed="10" />
<vehicle id="W2E134" type="standard_car" route="W2E" depart="67.1599427648425" departLane="random" departSpeed="10" />
<vehicle id="S2N135" type="standard_car" route="S2N" depart="68.03874528494292" departLane="random" departSpeed="10" />
<vehicle id="E2W136" type="standard_car" route="E2W" depart="68.4813060453237" departLane="random" departSpeed="10" />
<vehicle id="S2E137" type="standard_car" route="S2E" depart="68.97664873369683" departLane="random" departSpeed="10" />
<vehicle id="E2W138" type="standard_car" route="E2W" depart="69.12330947104228" departLane="random" departSpeed="10" />
<vehicle id="W2E139" type="standard_car" route="W2E" depart="69.33010377025451" departLane="random" departSpeed="10" />
<vehicle id="E2W140" type="standard_car" route="E2W" depart="69.61595394149359" departLane="random" departSpeed="10" />
<vehicle id="S2N141" type="standard_car" route="S2N" depart="70.26553155235186" departLane="random" departSpeed="10" />
<vehicle id="S2N142" type="standard_car" route="S2N" depart="70.31754262705434" departLane="random" departSpeed="10" />
<vehicle id="S2N143" type="standard_car" route="S2N" depart="70.77511372953693" departLane="random" departSpeed="10" />
<vehicle id="S2N144" type="standard_car" route="S2N" depart="71.70118228008043" departLane="random" departSpeed="10" />
<vehicle id="N2E145" type="standard_car" route="N2E" depart="71.93324805771259" departLane="random" departSpeed="10" />
<vehicle id="E2W146" type="standard_car" route="E2W" depart="72.03303683635404" departLane="random" departSpeed="10" />
<vehicle id="S2N147" type="standard_car" route="S2N" depart="72.77135730480526" departLane="random" departSpeed="10" />
<vehicle id="W2E148" type="standard_car" route="W2E" depart="72.77325012615225" departLane="random" departSpeed="10" />
<vehicle id="E2W149" type="standard_car" route="E2W" depart="73.18703929998964" departLane="random" departSpeed="10" />
<vehicle id="N2E150" type="standard_car" route="N2E" depart="73.62903609693862" departLane="random" departSpeed="10" />
<vehicle id="S2N151" type="standard_car" route="S2N" depart="73.78879837095718" departLane="random" departSpeed="10" />
<vehicle id="W2E152" type="standard_car" route="W2E" depart="74.76749683476976" departLane="random" departSpeed="10" />
<vehicle id="E2W153" type="standard_car" route="E2W" depart="74.92938716805287" departLane="random" departSpeed="10" />
<vehicle id="W2S154" type="standard_car" route="W2S" depart="75.16286027940582" departLane="random" departSpeed="10" />
<vehicle id="S2W155" type="standard_car" route="S2W" depart="75.85095105431344" departLane="random" departSpeed="10" />
<vehicle id="S2N156" type="standard_car" route="S2N" depart="76.10338412403107" departLane="random" departSpeed="10" />
<vehicle id="N2S157" type="standard_car" route="N2S" depart="76.23570790991832" departLane="random" departSpeed="10" />
<vehicle id="S2N158" type="standard_car" route="S2N" depart="76.79861207008129" departLane="random" departSpeed="10" />
<vehicle id="S2N159" type="standard_car" route="S2N" depart="77.00677315783824" departLane="random" departSpeed="10" />
<vehicle id="N2S160" type="standard_car" route="N2S" depart="77.75514328061286" departLane="random" departSpeed="10" />
<vehicle id="S2N161" type="standard_car" route="S2N" depart="77.85225394219741" departLane="random" departSpeed="10" />
<vehicle id="S2N162" type="standard_car" route="S2N" depart="77.86551948220189" departLane="random" departSpeed="10" />
<vehicle id="N2S163" type="standard_car" route="N2S" depart="78.20825501184966" departLane="random" departSpeed="10" />
<vehicle id="S2E164" type="standard_car" route="S2E" depart="78.60969649387017" departLane="random" departSpeed="10" />
<vehicle id="W2E165" type="standard_car" route="W2E" depart="79.2667508131076" departLane="random" departSpeed="10" />
<vehicle id="N2S166" type="standard_car" route="N2S" depart="79.4715458970548" departLane="random" departSpeed="10" />
<vehicle id="E2N167" type="standard_car" route="E2N" depart="79.68372907716432" departLane="random" departSpeed="10" />
<vehicle id="E2W168" type="standard_car" route="E2W" depart="80.20971454884261" departLane="random" departSpeed="10" />
<vehicle id="E2W169" type="standard_car" route="E2W" depart="80.69767465936172" departLane="random" departSpeed="10" />
<vehicle id="E2W170" type="standard_car" route="E2W" depart="81.3898499770976" departLane="random" departSpeed="10" />
<vehicle id="N2S171" type="standard_car" route="N2S" depart="82.45565359441123" departLane="random" departSpeed="10" />
<vehicle id="N2S172" type="standard_car" route="N2S" depart="83.68067831369808" departLane="random" departSpeed="10" />
<vehicle id="S2N173" type="standard_car" route="S2N" depart="84.53941440450352" departLane="random" departSpeed="10" />
<vehicle id="E2W174" type="standard_car" route="E2W" depart="84.61970141296786" departLane="random" departSpeed="10" />
<vehicle id="N2E175" type="standard_car" route="N2E" depart="85.92355667569672" departLane="random" departSpeed="10" />
<vehicle id="S2N176" type="standard_car" route="S2N" depart="85.9974483133285" departLane="random" departSpeed="10" />
<vehicle id="W2E177" type="standard_car" route="W2E" depart="86.52085528034853" departLane="random" departSpeed="10" />
<vehicle id="W2N178" type="standard_car" route="W2N" depart="86.66597924274818" departLane="random" departSpeed="10" />
<vehicle id="W2E179" type="standard_car" route="W2E" depart="86.69829382282718" departLane="random" departSpeed="10" />
<vehicle id="W2S180" type="standard_car" route="W2S" depart="88.94233762206983" departLane="random" departSpeed="10" />
<vehicle id="S2N181" type="standard_car" route="S2N" depart="89.17370093528886" departLane="random" departSpeed="10" />
<vehicle id="S2N182" type="standard_car" route="S2N" depart="89.176643037293" departLane="random" departSpeed="10" />
<vehicle id="W2S183" type="standard_car" route="W2S" depart="89.7076154225728" departLane="random" departSpeed="10" />
<vehicle id="N2S184" type="standard_car" route="N2S" depart="90.67744289365149" departLane="random" departSpeed="10" />
<vehicle id="E2W185" type="standard_car" route="E2W" depart="91.70974037349737" departLane="random" departSpeed="10" />
<vehicle id="E2W186" type="standard_car" route="E2W" depart="92.34560626433633" departLane="random" departSpeed="10" />
<vehicle id="N2S187" type="standard_car" route="N2S" depart="94.00355413433667" departLane="random" departSpeed="10" />
<vehicle id="E2W188" type="standard_car" route="E2W" depart="95.12537554526895" departLane="random" departSpeed="10" />
<vehicle id="S2N189" type="standard_car" route="S2N" depart="96.06921010513142" departLane="random" departSpeed="10" />
<vehicle id="E2W190" type="standard_car" route="E2W" depart="96.14174434129963" departLane="random" departSpeed="10" />
<vehicle id="W2E191" type="standard_car" route="W2E" depart="96.33730099750123" departLane="random" departSpeed="10" />
<vehicle id="S2N192" type="standard_car" route="S2N" depart="96.50612677415513" departLane="random" departSpeed="10" />
<vehicle id="E2W193" type="standard_car" route="E2W" depart="96.62198821151921" departLane="random" departSpeed="10" />
<vehicle id="N2S194" type="standard_car" route="N2S" depart="98.21934071535942" departLane="random" departSpeed="10" />
<vehicle id="W2E195" type="standard_car" route="W2E" depart="98.51847105732718" departLane="random" departSpeed="10" />
<vehicle id="N2S196" type="standard_car" route="N2S" depart="101.11107400793422" departLane="random" departSpeed="10" />
<vehicle id="N2S197" type="standard_car" route="N2S" depart="101.27716706011513" departLane="random" departSpeed="10" />
<vehicle id="E2W198" type="standard_car" route="E2W" depart="101.52739887542764" departLane="random" departSpeed="10" />
<vehicle id="S2N199" type="standard_car" route="S2N" depart="103.37940630894984" departLane="random" departSpeed="10" />
<vehicle id="N2E200" type="standard_car" route="N2E" depart="103.48413089291226" departLane="random" departSpeed="10" />
<vehicle id="N2S201" type="standard_car" route="N2S" depart="104.06360676136181" departLane="random" departSpeed="10" />
<vehicle id="N2S202" type="standard_car" route="N2S" depart="104.23069195784981" departLane="random" departSpeed="10" />
<vehicle id="S2N203" type="standard_car" route="S2N" depart="105.62012636868374" departLane="random" departSpeed="10" />
<vehicle id="N2S204" type="standard_car" route="N2S" depart="105.6432296428951" departLane="random" departSpeed="10" />
<vehicle id="N2E205" type="standard_car" route="N2E" depart="106.09136435546309" departLane="random" departSpeed="10" />
<vehicle id="N2S206" type="standard_car" route="N2S" depart="106.41571967547507" departLane="random" departSpeed="10" />
<vehicle id="S2N207" type="standard_car" route="S2N" depart="107.55103250339893" departLane="random" departSpeed="10" />
<vehicle id="N2S208" type="standard_car" route="N2S" depart="107.60743372143273" departLane="random" departSpeed="10" />
<vehicle id="S2N209" type="standard_car" route="S2N" depart="107.92445492664002" departLane="random" departSpeed="10" />
<vehicle id="W2E210" type="standard_car" route="W2E" depart="109.31970816835499" departLane="random" departSpeed="10" />
<vehicle id="N2S211" type="standard_car" route="N2S" depart="110.29869633277465" departLane="random" departSpeed="10" />
<vehicle id="S2N212" type="standard_car" route="S2N" depart="110.53631427932584" departLane="random" departSpeed="10" />
<vehicle id="N2S213" type="standard_car" route="N2S" depart="110.70042090209907" departLane="random" departSpeed="10" />
<vehicle id="W2E214" type="standard_car" route="W2E" depart="111.16974421808621" departLane="random" departSpeed="10" />
<vehicle id="N2S215" type="standard_car" route="N2S" depart="111.26356184896812" departLane="random" departSpeed="10" />
<vehicle id="E2W216" type="standard_car" route="E2W" depart="112.03218966550348" departLane="random" departSpeed="10" />
<vehicle id="S2N217" type="standard_car" route="S2N" depart="114.86143805609781" departLane="random" departSpeed="10" />
<vehicle id="E2W218" type="standard_car" route="E2W" depart="115.18789026329372" departLane="random" departSpeed="10" />
<vehicle id="W2S219" type="standard_car" route="W2S" depart="115.98330433823327" departLane="random" departSpeed="10" />
<vehicle id="E2W220" type="standard_car" route="E2W" depart="116.1201756669567" departLane="random" departSpeed="10" />
<vehicle id="S2N221" type="standard_car" route="S2N" depart="116.48736748804656" departLane="random" departSpeed="10" />
<vehicle id="E2W222" type="standard_car" route="E2W" depart="116.49088844475384" departLane="random" departSpeed="10" />
<vehicle id="N2S223" type="standard_car" route="N2S" depart="117.52940883805536" departLane="random" departSpeed="10" />
<vehicle id="W2E224" type="standard_car" route="W2E" depart="118.42046860732434" departLane="random" departSpeed="10" />
<vehicle id="E2W225" type="standard_car" route="E2W" depart="119.01223638280555" departLane="random" departSpeed="10" />
<vehicle id="S2N226" type="standard_car" route="S2N" depart="119.70958179588456" departLane="random" departSpeed="10" />
<vehicle id="S2N227" type="standard_car" route="S2N" depart="119.72212171319863" departLane="random" departSpeed="10" />
<vehicle id="E2N228" type="standard_car" route="E2N" depart="120.45841858969351" departLane="random" departSpeed="10" />
<vehicle id="E2W229" type="standard_car" route="E2W" depart="121.69320562454295" departLane="random" departSpeed="10" />
<vehicle id="W2N230" type="standard_car" route="W2N" depart="122.81315430429281" departLane="random" departSpeed="10" />
<vehicle id="S2N231" type="standard_car" route="S2N" depart="123.33133934046599" departLane="random" departSpeed="10" />
<vehicle id="E2W232" type="standard_car" route="E2W" depart="124.8560523364378" departLane="random" departSpeed="10" />
<vehicle id="E2W233" type="standard_car" route="E2W" depart="127.90555224549954" departLane="random" departSpeed="10" />
<vehicle id="W2E234" type="standard_car" route="W2E" depart="131.5211540986334" departLane="random" departSpeed="10" />
<vehicle id="W2N235" type="standard_car" route="W2N" depart="132.35187745226597" departLane="random" departSpeed="10" />
<vehicle id="E2N236" type="standard_car" route="E2N" depart="134.53143249007263" departLane="random" departSpeed="10" />
<vehicle id="S2N237" type="standard_car" route="S2N" depart="136.239779546637" departLane="random" departSpeed="10" />
<vehicle id="W2E238" type="standard_car" route="W2E" depart="137.5901536966045" departLane="random" departSpeed="10" />
<vehicle id="E2W239" type="standard_car" route="E2W" depart="137.72896385702148" departLane="random" departSpeed="10" />
<vehicle id="N2W240" type="standard_car" route="N2W" depart="137.8335024114535" departLane="random" departSpeed="10" />
<vehicle id="N2S241" type="standard_car" route="N2S" depart="139.27017480422404" departLane="random" departSpeed="10" />