<?xml version="1.0" encoding="UTF-8"?>

            <routes xmlns:xsi="http://www.w3.org/2001/XMLSchema-instance">
   
            <vType accel="1.0" decel="4.5" id="standard_car" length="5.0" minGap="2.5" maxSpeed="25" sigma="0.5" />) 
            
            <route id="N2W" edges="-125514711 125514713"/>
            <route id="N2S" edges="-125514711 -125514709"/>
            <route id="N2E" edges="-125514711 -548975769"/>     
            <route id="W2N" edges="-125514713 125514711"/>
            <route id="W2E" edges="-125514713 -548975769"/>
            <route id="W2S" edges="-125514711 -125514709"/>
            <route id="S2W" edges="125514709 125514713"/>
            <route id="S2N" edges="125514709 125514711"/>
            <route id="S2E" edges="-125514711 -548975769"/>
            <route id="E2S" edges="548975769 -125514709"/>
            <route id="E2W" edges="548975769 125514713"/>
            <route id="E2N" edges="548975769 125514711"/>
            
<vehicle id="N2S0" type="standard_car" route="N2S" depart="22.132363855747485" departLane="random" departSpeed="10" />
<vehicle id="W2S1" type="standard_car" route="W2S" depart="22.164401005326834" departLane="random" departSpeed="10" />
<vehicle id="S2N2" type="standard_car" route="S2N" depart="28.14526618624891" departLane="random" departSpeed="10" />
<vehicle id="N2E3" type="standard_car" route="N2E" depart="28.571840547565" departLane="random" departSpeed="10" />
<vehicle id="W2N4" type="standard_car" route="W2N" depart="28.874504844555304" departLane="random" departSpeed="10" />
<vehicle id="E2W5" type="standard_car" route="E2W" depart="31.855022143274237" departLane="random" departSpeed="10" />
<vehicle id="N2S6" type="standard_car" route="N2S" depart="33.59639045452575" departLane="random" departSpeed="10" />
<vehicle id="E2S7" type="standard_car" route="E2S" depart="34.7175276465233" departLane="random" departSpeed="10" />
<vehicle id="W2E8" type="standard_car" route="W2E" depart="39.09555978682701" departLane="random" departSpeed="10" />
<vehicle id="W2N9" type="standard_car" route="W2N" depart="40.963505664998976" departLane="random" departSpeed="10" />
<vehicle id="W2E10" type="standard_car" route="W2E" depart="45.42380716973229" departLane="random" departSpeed="10" />
<vehicle id="S2W11" type="standard_car" route="S2W" depart="49.91656741523256" departLane="random" departSpeed="10" />
<vehicle id="W2E12" type="standard_car" route="W2E" depart="50.56292046141566" departLane="random" departSpeed="10" />
<vehicle id="E2W13" type="standard_car" route="E2W" depart="51.06514276455432" departLane="random" departSpeed="10" />
<vehicle id="S2E14" type="standard_car" route="S2E" depart="58.62368000335917" departLane="random" departSpeed="10" />
<vehicle id="S2W15" type="standard_car" route="S2W" depart="58.89708325374366" departLane="random" departSpeed="10" />
<vehicle id="N2S16" type="standard_car" route="N2S" depart="60.6296773253348" departLane="random" departSpeed="10" />
<vehicle id="S2N17" type="standard_car" route="S2N" depart="64.72930645009984" departLane="random" departSpeed="10" />
<vehicle id="S2N18" type="standard_car" route="S2N" depart="65.94798958622566" departLane="random" departSpeed="10" />
<vehicle id="E2W19" type="standard_car" route="E2W" depart="66.39372186694084" departLane="random" departSpeed="10" />
<vehicle id="N2S20" type="standard_car" route="N2S" depart="66.44101280928959" departLane="random" departSpeed="10" />
<vehicle id="N2S21" type="standard_car" route="N2S" depart="67.40697862142933" departLane="random" departSpeed="10" />
<vehicle id="S2E22" type="standard_car" route="S2E" depart="68.16357213234713" departLane="random" departSpeed="10" />
<vehicle id="E2W23" type="standard_car" route="E2W" depart="72.17427640837766" departLane="random" departSpeed="10" />
<vehicle id="N2S24" type="standard_car" route="N2S" depart="72.22984814998208" departLane="random" departSpeed="10" />
<vehicle id="N2W25" type="standard_car" route="N2W" depart="72.26246940118733" departLane="random" departSpeed="10" />
<vehicle id="E2N26" type="standard_car" route="E2N" depart="73.02598437343615" departLane="random" departSpeed="10" />
<vehicle id="E2W27" type="standard_car" route="E2W" depart="73.08531297495088" departLane="random" departSpeed="10" />
<vehicle id="N2W28" type="standard_car" route="N2W" depart="73.91879899012652" departLane="random" departSpeed="10" />
<vehicle id="E2N29" type="standard_car" route="E2N" depart="76.46528820069258" departLane="random" departSpeed="10" />
<vehicle id="S2N30" type="standard_car" route="S2N" depart="77.36298050159033" departLane="random" departSpeed="10" />
<vehicle id="S2N31" type="standard_car" route="S2N" depart="77.72133787682904" departLane="random" departSpeed="10" />
<vehicle id="W2E32" type="standard_car" route="W2E" depart="78.13842800438967" departLane="random" departSpeed="10" />
<vehicle id="N2W33" type="standard_car" route="N2W" depart="80.39086821426251" departLane="random" departSpeed="10" />
<vehicle id="S2N34" type="standard_car" route="S2N" depart="80.50433752420406" departLane="random" departSpeed="10" />
<vehicle id="E2S35" type="standard_car" route="E2S" depart="83.37821496947204" departLane="random" departSpeed="10" />
<vehicle id="N2S36" type="standard_car" route="N2S" depart="83.53355384990915" departLane="random" departSpeed="10" />
<vehicle id="N2W37" type="standard_car" route="N2W" depart="84.00067843048201" departLane="random" departSpeed="10" />
<vehicle id="W2N38" type="standard_car" route="W2N" depart="84.26730869812545" departLane="random" departSpeed="10" />
<vehicle id="E2N39" type="standard_car" route="E2N" depart="84.61562382649699" departLane="random" departSpeed="10" />
<vehicle id="W2S40" type="standard_car" route="W2S" depart="86.54106681630076" departLane="random" departSpeed="10" />
<vehicle id="E2W41" type="standard_car" route="E2W" depart="88.69878364234297" departLane="random" departSpeed="10" />
<vehicle id="W2E42" type="standard_car" route="W2E" depart="90.78732492907264" departLane="random" departSpeed="10" />
<vehicle id="N2S43" type="standard_car" route="N2S" depart="90.96069649458242" departLane="random" departSpeed="10" />
<vehicle id="W2S44" type="standard_car" route="W2S" depart="93.89946145932397" departLane="random" departSpeed="10" />
<vehicle id="N2E45" type="standard_car" route="N2E" depart="95.13566625400864" departLane="random" departSpeed="10" />
<vehicle id="N2S46" type="standard_car" route="N2S" depart="95.88775204649708" departLane="random" departSpeed="10" />
<vehicle id="S2N47" type="standard_car" route="S2N" depart="96.15286143865528" departLane="random" departSpeed="10" />
<vehicle id="W2E48" type="standard_car" route="W2E" depart="96.48885787526164" departLane="random" departSpeed="10" />
<vehicle id="E2W49" type="standard_car" route="E2W" depart="99.2693820594979" departLane="random" departSpeed="10" />
<vehicle id="S2W50" type="standard_car" route="S2W" depart="99.32012794981355" departLane="random" departSpeed="10" />
<vehicle id="N2E51" type="standard_car" route="N2E" depart="99.67785703468368" departLane="random" departSpeed="10" />
<vehicle id="W2E52" type="standard_car" route="W2E" depart="100.15661166102187" departLane="random" departSpeed="10" />
<vehicle id="E2N53" type="standard_car" route="E2N" depart="103.04586314141179" departLane="random" departSpeed="10" />
<vehicle id="S2N54" type="standard_car" route="S2N" depart="104.11320304883715" departLane="random" departSpeed="10" />
<vehicle id="E2W55" type="standard_car" route="E2W" depart="105.04071201316265" departLane="random" departSpeed="10" />
<vehicle id="N2S56" type="standard_car" route="N2S" depart="105.24518732078663" departLane="random" departSpeed="10" />
<vehicle id="S2W57" type="standard_car" route="S2W" depart="105.51768513268722" departLane="random" departSpeed="10" />
<vehicle id="E2W58" type="standard_car" route="E2W" depart="106.70965310511207" departLane="random" departSpeed="10" />
<vehicle id="N2S59" type="standard_car" route="N2S" depart="108.29431841646345" departLane="random" departSpeed="10" />
<vehicle id="W2E60" type="standard_car" route="W2E" depart="110.15210549856435" departLane="random" departSpeed="10" />
<vehicle id="S2W61" type="standard_car" route="S2W" depart="111.2147513279835" departLane="random" departSpeed="10" />
<vehicle id="E2W62" type="standard_car" route="E2W" depart="111.76962472779063" departLane="random" departSpeed="10" />
<vehicle id="W2E63" type="standard_car" route="W2E" depart="113.42523460538332" departLane="random" departSpeed="10" />
<vehicle id="W2S64" type="standard_car" route="W2S" depart="116.74459708647193" departLane="random" departSpeed="10" />
<vehicle id="N2S65" type="standard_car" route="N2S" depart="121.29644866695257" departLane="random" departSpeed="10" />
<vehicle id="E2W66" type="standard_car" route="E2W" depart="121.37309547985893" departLane="random" departSpeed="10" />
<vehicle id="S2W67" type="standard_car" route="S2W" depart="122.48475616044581" departLane="random" departSpeed="10" />
<vehicle id="S2E68" type="standard_car" route="S2E" depart="122.59880478152763" departLane="random" departSpeed="10" />
<vehicle id="N2S69" type="standard_car" route="N2S" depart="123.13688490543971" departLane="random" departSpeed="10" />
<vehicle id="E2W70" type="standard_car" route="E2W" depart="123.69162331023269" departLane="random" departSpeed="10" />
<vehicle id="E2S71" type="standard_car" route="E2S" depart="124.5424466042747" departLane="random" departSpeed="10" />
<vehicle id="S2E72" type="standard_car" route="S2E" depart="125.03349703480585" departLane="random" departSpeed="10" />
<vehicle id="W2E73" type="standard_car" route="W2E" depart="125.43198189252318" departLane="random" departSpeed="10" />
<vehicle id="W2N74" type="standard_car" route="W2N" depart="129.19986570208533" departLane="random" departSpeed="10" />
<vehicle id="S2N75" type="standard_car" route="S2N" depart="130.94589549017388" departLane="random" departSpeed="10" />
<vehicle id="W2S76" type="standard_car" route="W2S" depart="131.34490371791912" departLane="random" departSpeed="10" />
<vehicle id="S2N77" type="standard_car" route="S2N" depart="132.01237714903135" departLane="random" departSpeed="10" />
<vehicle id="E2W78" type="standard_car" route="E2W" depart="132.85348765539294" departLane="random" departSpeed="10" />
<vehicle id="N2S79" type="standard_car" route="N2S" depart="136.290779132871" departLane="random" departSpeed="10" />
<vehicle id="W2E80" type="standard_car" route="W2E" depart="140.43137084623444" departLane="random" departSpeed="10" />
<vehicle id="N2W81" type="standard_car" route="N2W" depart="141.09486452021477" departLane="random" departSpeed="10" />
<vehicle id="N2S82" type="standard_car" route="N2S" depart="144.71210534092793" departLane="random" departSpeed="10" />
<vehicle id="N2E83" type="standard_car" route="N2E" depart="146.14744967211638" departLane="random" departSpeed="10" />
<vehicle id="N2W84" type="standard_car" route="N2W" depart="147.79129180615666" departLane="random" departSpeed="10" />
<vehicle id="N2S85" type="standard_car" route="N2S" depart="149.11132713429635" departLane="random" departSpeed="10" />
<vehicle id="W2S86" type="standard_car" route="W2S" depart="150.22924437066794" departLane="random" departSpeed="10" />
<vehicle id="E2W87" type="standard_car" route="E2W" depart="154.42814305799962" departLane="random" departSpeed="10" />
<vehicle id="E2W88" type="standard_car" route="E2W" depart="155.34044782403723" departLane="random" departSpeed="10" />
<vehicle id="S2N89" type="standard_car" route="S2N" depart="155.7605762419418" departLane="random" departSpeed="10" />
<vehicle id="E2W90" type="standard_car" route="E2W" depart="156.14889083507606" departLane="random" departSpeed="10" />
<vehicle id="N2W91" type="standard_car" route="N2W" depart="156.43883983321672" departLane="random" departSpeed="10" />
<vehicle id="E2W92" type="standard_car" route="E2W" depart="156.73800725140973" departLane="random" departSpeed="10" />
<vehicle id="W2S93" type="standard_car" route="W2S" depart="157.45233766266628" departLane="random" departSpeed="10" />
<vehicle id="N2W94" type="standard_car" route="N2W" depart="158.28248619950335" departLane="random" departSpeed="10" />
<vehicle id="E2W95" type="standard_car" route="E2W" depart="158.37516342686183" departLane="random" departSpeed="10" />
<vehicle id="N2S96" type="standard_car" route="N2S" depart="158.85073116156752" departLane="random" departSpeed="10" />
<vehicle id="E2N97" type="standard_car" route="E2N" depart="158.89948629681422" departLane="random" departSpeed="10" />
<vehicle id="W2S98" type="standard_car" route="W2S" depart="159.3479213318895" departLane="random" departSpeed="10" />
<vehicle id="W2E99" type="standard_car" route="W2E" depart="160.7240990719618" departLane="random" departSpeed="10" />
<vehicle id="N2E100" type="standard_car" route="N2E" depart="163.6860301939887" departLane="random" departSpeed="10" />
<vehicle id="E2S101" type="standard_car" route="E2S" depart="166.84307094079836" departLane="random" departSpeed="10" />
<vehicle id="N2S102" type="standard_car" route="N2S" depart="166.84316768329882" departLane="random" departSpeed="10" />
<vehicle id="E2N103" type="standard_car" route="E2N" depart="169.5520084002576" departLane="random" departSpeed="10" />
<vehicle id="S2W104" type="standard_car" route="S2W" depart="173.28934844331525" departLane="random" departSpeed="10" />
<vehicle id="W2E105" type="standard_car" route="W2E" depart="174.50687441162748" departLane="random" departSpeed="10" />
<vehicle id="N2S106" type="standard_car" route="N2S" depart="177.0019225748607" departLane="random" departSpeed="10" />
<vehicle id="S2W107" type="standard_car" route="S2W" depart="177.06021714965684" departLane="random" departSpeed="10" />
<vehicle id="W2E108" type="standard_car" route="W2E" depart="177.62157042443002" departLane="random" departSpeed="10" />
<vehicle id="N2E109" type="standard_car" route="N2E" depart="178.13311014875546" departLane="random" departSpeed="10" />
<vehicle id="S2N110" type="standard_car" route="S2N" depart="178.6208875152247" departLane="random" departSpeed="10" />
<vehicle id="S2N111" type="standard_car" route="S2N" depart="183.5729720673423" departLane="random" departSpeed="10" />
<vehicle id="N2W112" type="standard_car" route="N2W" depart="185.37626687210516" departLane="random" departSpeed="10" />
<vehicle id="W2S113" type="standard_car" route="W2S" depart="186.93294721483332" departLane="random" departSpeed="10" />
<vehicle id="S2N114" type="standard_car" route="S2N" depart="189.651634431995" departLane="random" departSpeed="10" />
<vehicle id="S2W115" type="standard_car" route="S2W" depart="190.32026547601262" departLane="random" departSpeed="10" />
<vehicle id="S2E116" type="standard_car" route="S2E" depart="201.6553507710961" departLane="random" departSpeed="10" />
<vehicle id="N2E117" type="standard_car" route="N2E" depart="203.5656492161182" departLane="random" departSpeed="10" />
<vehicle id="E2S118" type="standard_car" route="E2S" depart="214.77508427741844" departLane="random" departSpeed="10" />
<vehicle id="E2S119" type="standard_car" route="E2S" depart="216.39194537554746" departLane="random" departSpeed="10" />
<vehicle id="N2S120" type="standard_car" route="N2S" depart="216.4385003616845" departLane="random" departSpeed="10" />
<vehicle id="W2E121" type="standard_car" route="W2E" depart="216.46314171816073" departLane="random" departSpeed="10" />
<vehicle id="E2S122" type="standard_car" route="E2S" depart="218.15976906560647" departLane="random" departSpeed="10" />
<vehicle id="E2S123" type="standard_car" route="E2S" depart="221.923434496929" departLane="random" departSpeed="10" />
<vehicle id="E2W124" type="standard_car" route="E2W" depart="223.3309434454652" departLane="random" departSpeed="10" />
<vehicle id="S2N125" type="standard_car" route="S2N" depart="223.72332528325632" departLane="random" departSpeed="10" />
<vehicle id="S2N126" type="standard_car" route="S2N" depart="226.42642887454048" departLane="random" departSpeed="10" />
<vehicle id="N2S127" type="standard_car" route="N2S" depart="227.86713493714615" departLane="random" departSpeed="10" />
<vehicle id="S2N128" type="standard_car" route="S2N" depart="228.9502151267901" departLane="random" departSpeed="10" />
<vehicle id="S2N129" type="standard_car" route="S2N" depart="232.6781688918322" departLane="random" departSpeed="10" />
<vehicle id="W2E130" type="standard_car" route="W2E" depart="238.7810450761068" departLane="random" departSpeed="10" />
<vehicle id="N2S131" type="standard_car" route="N2S" depart="243.89901096730807" departLane="random" departSpeed="10" />
<vehicle id="E2W132" type="standard_car" route="E2W" depart="244.08720315803058" departLane="random" departSpeed="10" />
<vehicle id="N2W133" type="standard_car" route="N2W" depart="252.29930660631445" departLane="random" departSpeed="10" />
<vehicle id="N2E134" type="standard_car" route="N2E" depart="252.9533158756488" departLane="random" departSpeed="10" />
<vehicle id="N2S135" type="standard_car" route="N2S" depart="257.7823169694247" departLane="random" departSpeed="10" />
<vehicle id="N2W136" type="standard_car" route="N2W" depart="283.7371087764329" departLane="random" departSpeed="10" />
<vehicle id="S2N137" type="standard_car" route="S2N" depart="288.72715076000827" departLane="random" departSpeed="10" />
<vehicle id="W2N138" type="standard_car" route="W2N" depart="300.0" departLane="random" departSpeed="10" />
</routes>
