<?xml version="1.0" encoding="UTF-8"?>

            <routes xmlns:xsi="http://www.w3.org/2001/XMLSchema-instance">
   
            <vType accel="1.0" decel="4.5" id="standard_car" length="5.0" minGap="2.5" maxSpeed="25" sigma="0.5" />) 
            
            <route id="N2W" edges="-125514711 125514713"/>
            <route id="N2S" edges="-125514711 -125514709"/>
            <route id="N2E" edges="-125514711 -548975769"/>     
            <route id="W2N" edges="-125514713 125514711"/>
            <route id="W2E" edges="-125514713 -548975769"/>
            <route id="W2S" edges="-125514711 -125514709"/>
            <route id="S2W" edges="125514709 125514713"/>
            <route id="S2N" edges="125514709 125514711"/>
            <route id="S2E" edges="-125514711 -548975769"/>
            <route id="E2S" edges="548975769 -125514709"/>
            <route id="E2W" edges="548975769 125514713"/>
            <route id="E2N" edges="548975769 125514711"/>
            
<vehicle id="N2S0" type="standard_car" route="N2S" depart="32.85726427907233" departLane="random" departSpeed="10" />
<vehicle id="E2W1" type="standard_car" route="E2W" depart="40.71015896884349" departLane="random" departSpeed="10" />
<vehicle id="N2S2" type="standard_car" route="N2S" depart="45.628826801950225" departLane="random" departSpeed="10" />
<vehicle id="N2S3" type="standard_car" route="N2S" depart="50.29474669993298" departLane="random" departSpeed="10" />
<vehicle id="S2N4" type="standard_car" route="S2N" depart="53.221974214200806" departLane="random" departSpeed="10" />
<vehicle id="E2W5" type="standard_car" route="E2W" depart="57.33455504517332" departLane="random" departSpeed="10" />
<vehicle id="W2E6" type="standard_car" route="W2E" depart="59.58211481397012" departLane="random" departSpeed="10" />
<vehicle id="N2S7" type="standard_car" route="N2S" depart="60.1368683958455" departLane="random" departSpeed="10" />
<vehicle id="E2W8" type="standard_car" route="E2W" depart="60.89163603524954" departLane="random" departSpeed="10" />
<vehicle id="E2N9" type="standard_car" route="E2N" depart="63.13758439421717" departLane="random" departSpeed="10" />
<vehicle id="W2E10" type="standard_car" route="W2E" depart="80.13774413199428" departLane="random" departSpeed="10" />
<vehicle id="E2W11" type="standard_car" route="E2W" depart="82.64837089487555" departLane="random" departSpeed="10" />
<vehicle id="N2W12" type="standard_car" route="N2W" depart="83.5377184311686" departLane="random" departSpeed="10" />
<vehicle id="N2S13" type="standard_car" route="N2S" depart="87.14055237703636" departLane="random" departSpeed="10" />
<vehicle id="S2N14" type="standard_car" route="S2N" depart="88.00812408477309" departLane="random" departSpeed="10" />
<vehicle id="E2S15" type="standard_car" route="E2S" depart="95.15686022302219" departLane="random" departSpeed="10" />
<vehicle id="S2W16" type="standard_car" route="S2W" depart="95.37239882665064" departLane="random" departSpeed="10" />
<vehicle id="W2E17" type="standard_car" route="W2E" depart="95.78824742917999" departLane="random" departSpeed="10" />
<vehicle id="S2N18" type="standard_car" route="S2N" depart="101.59384646198886" departLane="random" departSpeed="10" />
<vehicle id="E2W19" type="standard_car" route="E2W" depart="101.69435709929924" departLane="random" departSpeed="10" />
<vehicle id="N2E20" type="standard_car" route="N2E" depart="105.06177641854293" departLane="random" departSpeed="10" />
<vehicle id="W2E21" type="standard_car" route="W2E" depart="107.01163467250197" departLane="random" departSpeed="10" />
<vehicle id="E2S22" type="standard_car" route="E2S" depart="112.42626150428117" departLane="random" departSpeed="10" />
<vehicle id="S2E23" type="standard_car" route="S2E" depart="116.16693891044045" departLane="random" departSpeed="10" />
<vehicle id="E2W24" type="standard_car" route="E2W" depart="118.02184396051976" departLane="random" departSpeed="10" />
<vehicle id="W2E25" type="standard_car" route="W2E" depart="122.06194046893091" departLane="random" departSpeed="10" />
<vehicle id="W2E26" type="standard_car" route="W2E" depart="123.20948096991802" departLane="random" departSpeed="10" />
<vehicle id="S2N27" type="standard_car" route="S2N" depart="125.46084941124079" departLane="random" departSpeed="10" />
<vehicle id="N2S28" type="standard_car" route="N2S" depart="126.13617951517162" departLane="random" departSpeed="10" />
<vehicle id="N2S29" type="standard_car" route="N2S" depart="126.61035162944559" departLane="random" departSpeed="10" />
<vehicle id="N2S30" type="standard_car" route="N2S" depart="129.0822617400793" departLane="random" departSpeed="10" />
<vehicle id="W2S31" type="standard_car" route="W2S" depart="132.42546184223443" departLane="random" departSpeed="10" />
<vehicle id="N2S32" type="standard_car" route="N2S" depart="133.95651317076212" departLane="random" departSpeed="10" />
<vehicle id="S2W33" type="standard_car" route="S2W" depart="137.4532200507248" departLane="random" departSpeed="10" />
<vehicle id="E2W34" type="standard_car" route="E2W" depart="137.95220077824553" departLane="random" departSpeed="10" />
<vehicle id="E2S35" type="standard_car" route="E2S" depart="139.9964416576023" departLane="random" departSpeed="10" />
<vehicle id="S2N36" type="standard_car" route="S2N" depart="140.27476993882385" departLane="random" departSpeed="10" />
<vehicle id="E2N37" type="standard_car" route="E2N" depart="140.68852934102497" departLane="random" departSpeed="10" />
<vehicle id="N2S38" type="standard_car" route="N2S" depart="141.58303864131443" departLane="random" departSpeed="10" />
<vehicle id="W2E39" type="standard_car" route="W2E" depart="144.89812089073985" departLane="random" departSpeed="10" />
<vehicle id="W2E40" type="standard_car" route="W2E" depart="147.7460329185523" departLane="random" departSpeed="10" />
<vehicle id="E2W41" type="standard_car" route="E2W" depart="149.46344610643297" departLane="random" departSpeed="10" />
<vehicle id="N2E42" type="standard_car" route="N2E" depart="163.31154280920808" departLane="random" departSpeed="10" />
<vehicle id="E2W43" type="standard_car" route="E2W" depart="163.54838224536311" departLane="random" departSpeed="10" />
<vehicle id="S2N44" type="standard_car" route="S2N" depart="173.51243074164142" departLane="random" departSpeed="10" />
<vehicle id="W2E45" type="standard_car" route="W2E" depart="174.68314139387354" departLane="random" departSpeed="10" />
<vehicle id="E2W46" type="standard_car" route="E2W" depart="176.69399692252853" departLane="random" departSpeed="10" />
<vehicle id="N2S47" type="standard_car" route="N2S" depart="178.93100308407537" departLane="random" departSpeed="10" />
<vehicle id="N2S48" type="standard_car" route="N2S" depart="182.02413867073943" departLane="random" departSpeed="10" />
<vehicle id="S2W49" type="standard_car" route="S2W" depart="183.52023245571095" departLane="random" departSpeed="10" />
<vehicle id="S2N50" type="standard_car" route="S2N" depart="184.16835450227188" departLane="random" departSpeed="10" />
<vehicle id="W2E51" type="standard_car" route="W2E" depart="184.94169184907932" departLane="random" departSpeed="10" />
<vehicle id="W2E52" type="standard_car" route="W2E" depart="185.97738952978523" departLane="random" departSpeed="10" />
<vehicle id="N2E53" type="standard_car" route="N2E" depart="187.16097060793084" departLane="random" departSpeed="10" />
<vehicle id="E2W54" type="standard_car" route="E2W" depart="188.13314477612" departLane="random" departSpeed="10" />
<vehicle id="S2N55" type="standard_car" route="S2N" depart="193.21305976057565" departLane="random" departSpeed="10" />
<vehicle id="E2W56" type="standard_car" route="E2W" depart="195.72132995343" departLane="random" departSpeed="10" />
<vehicle id="E2W57" type="standard_car" route="E2W" depart="202.84646906598374" departLane="random" departSpeed="10" />
<vehicle id="W2E58" type="standard_car" route="W2E" depart="222.86650122918695" departLane="random" departSpeed="10" />
<vehicle id="N2S59" type="standard_car" route="N2S" depart="227.00593893739142" departLane="random" departSpeed="10" />
<vehicle id="S2N60" type="standard_car" route="S2N" depart="229.59306344746042" departLane="random" departSpeed="10" />
<vehicle id="W2E61" type="standard_car" route="W2E" depart="230.5915701247851" departLane="random" departSpeed="10" />
<vehicle id="E2W62" type="standard_car" route="E2W" depart="237.03557374185527" departLane="random" departSpeed="10" />
<vehicle id="N2S63" type="standard_car" route="N2S" depart="260.56429848066836" departLane="random" departSpeed="10" />
<vehicle id="E2W64" type="standard_car" route="E2W" depart="278.25534124559255" departLane="random" departSpeed="10" />
<vehicle id="E2W65" type="standard_car" route="E2W" depart="280.49983551308276" departLane="random" departSpeed="10" />
<vehicle id="W2E66" type="standard_car" route="W2E" depart="286.748385730849" departLane="random" departSpeed="10" />
<vehicle id="W2S67" type="standard_car" route="W2S" depart="290.88119892534013" departLane="random" departSpeed="10" />
<vehicle id="W2S68" type="standard_car" route="W2S" depart="310.1495457232963" departLane="random" departSpeed="10" />
<vehicle id="E2W69" type="standard_car" route="E2W" depart="310.68520314277765" departLane="random" departSpeed="10" />
<vehicle id="E2W70" type="standard_car" route="E2W" depart="312.6089052127461" departLane="random" departSpeed="10" />
<vehicle id="E2W71" type="standard_car" route="E2W" depart="323.9596743902931" departLane="random" departSpeed="10" />
<vehicle id="E2N72" type="standard_car" route="E2N" depart="324.2358012534198" departLane="random" departSpeed="10" />
<vehicle id="S2E73" type="standard_car" route="S2E" depart="371.65697290446246" departLane="random" departSpeed="10" />
<vehicle id="W2E74" type="standard_car" route="W2E" depart="400.0" departLane="random" departSpeed="10" />
</routes>
