<?xml version="1.0" encoding="UTF-8"?>

            <routes xmlns:xsi="http://www.w3.org/2001/XMLSchema-instance">
   
            <vType accel="1.0" decel="4.5" id="standard_car" length="5.0" minGap="2.5" maxSpeed="25" sigma="0.5" />) 
            
            <route id="N2W" edges="-125514711 125514713"/>
            <route id="N2S" edges="-125514711 -125514709"/>
            <route id="N2E" edges="-125514711 -548975769"/>     
            <route id="W2N" edges="-125514713 125514711"/>
            <route id="W2E" edges="-125514713 -548975769"/>
            <route id="W2S" edges="-125514711 -125514709"/>
            <route id="S2W" edges="125514709 125514713"/>
            <route id="S2N" edges="125514709 125514711"/>
            <route id="S2E" edges="-125514711 -548975769"/>
            <route id="E2S" edges="548975769 -125514709"/>
            <route id="E2W" edges="548975769 125514713"/>
            <route id="E2N" edges="548975769 125514711"/>
            
<vehicle id="N2S0" type="standard_car" route="N2S" depart="11.211176530079317" departLane="random" departSpeed="10" />
<vehicle id="W2E1" type="standard_car" route="W2E" depart="13.67751761312068" departLane="random" departSpeed="10" />
<vehicle id="S2E2" type="standard_car" route="S2E" depart="15.526323439723374" departLane="random" departSpeed="10" />
<vehicle id="E2N3" type="standard_car" route="E2N" depart="22.86399411060714" departLane="random" departSpeed="10" />
<vehicle id="N2W4" type="standard_car" route="N2W" depart="38.73300007576302" departLane="random" departSpeed="10" />
<vehicle id="S2W5" type="standard_car" route="S2W" depart="39.94003471089684" departLane="random" departSpeed="10" />
<vehicle id="S2N6" type="standard_car" route="S2N" depart="40.198880881181054" departLane="random" departSpeed="10" />
<vehicle id="E2W7" type="standard_car" route="E2W" depart="41.49419837862459" departLane="random" departSpeed="10" />
<vehicle id="S2N8" type="standard_car" route="S2N" depart="44.654253210918135" departLane="random" departSpeed="10" />
<vehicle id="E2S9" type="standard_car" route="E2S" depart="46.315956406470185" departLane="random" departSpeed="10" />
<vehicle id="W2S10" type="standard_car" route="W2S" depart="47.42093714546493" departLane="random" departSpeed="10" />
<vehicle id="W2E11" type="standard_car" route="W2E" depart="49.7896389436869" departLane="random" departSpeed="10" />
<vehicle id="N2S12" type="standard_car" route="N2S" depart="52.491793514186966" departLane="random" departSpeed="10" />
<vehicle id="W2N13" type="standard_car" route="W2N" depart="53.070768570683924" departLane="random" departSpeed="10" />
<vehicle id="N2S14" type="standard_car" route="N2S" depart="54.46325236428658" departLane="random" departSpeed="10" />
<vehicle id="W2S15" type="standard_car" route="W2S" depart="55.1017799035681" departLane="random" departSpeed="10" />
<vehicle id="E2N16" type="standard_car" route="E2N" depart="55.123190140784864" departLane="random" departSpeed="10" />
<vehicle id="N2W17" type="standard_car" route="N2W" depart="56.8595970457936" departLane="random" departSpeed="10" />
<vehicle id="W2N18" type="standard_car" route="W2N" depart="57.13554932973353" departLane="random" departSpeed="10" />
<vehicle id="W2E19" type="standard_car" route="W2E" depart="60.4738571420953" departLane="random" departSpeed="10" />
<vehicle id="W2S20" type="standard_car" route="W2S" depart="72.01916324845249" departLane="random" departSpeed="10" />
<vehicle id="E2W21" type="standard_car" route="E2W" depart="74.01567217432218" departLane="random" departSpeed="10" />
<vehicle id="N2E22" type="standard_car" route="N2E" depart="77.76605271775215" departLane="random" departSpeed="10" />
<vehicle id="W2E23" type="standard_car" route="W2E" depart="79.40681078154701" departLane="random" departSpeed="10" />
<vehicle id="E2S24" type="standard_car" route="E2S" depart="81.17688986607577" departLane="random" departSpeed="10" />
<vehicle id="S2E25" type="standard_car" route="S2E" depart="81.5734980830348" departLane="random" departSpeed="10" />
<vehicle id="W2E26" type="standard_car" route="W2E" depart="81.62528807598719" departLane="random" departSpeed="10" />
<vehicle id="N2W27" type="standard_car" route="N2W" depart="81.87943854948769" departLane="random" departSpeed="10" />
<vehicle id="E2S28" type="standard_car" route="E2S" depart="85.10081108969457" departLane="random" departSpeed="10" />
<vehicle id="N2S29" type="standard_car" route="N2S" depart="86.46506345744946" departLane="random" departSpeed="10" />
<vehicle id="S2N30" type="standard_car" route="S2N" depart="87.15324662962868" departLane="random" departSpeed="10" />
<vehicle id="S2W31" type="standard_car" route="S2W" depart="87.96954988931186" departLane="random" departSpeed="10" />
<vehicle id="N2S32" type="standard_car" route="N2S" depart="90.32318135076208" departLane="random" departSpeed="10" />
<vehicle id="N2E33" type="standard_car" route="N2E" depart="94.63066114641772" departLane="random" departSpeed="10" />
<vehicle id="N2E34" type="standard_car" route="N2E" depart="95.78751444740341" departLane="random" departSpeed="10" />
<vehicle id="E2W35" type="standard_car" route="E2W" depart="99.01462893218174" departLane="random" departSpeed="10" />
<vehicle id="W2N36" type="standard_car" route="W2N" depart="101.01319784488136" departLane="random" departSpeed="10" />
<vehicle id="E2S37" type="standard_car" route="E2S" depart="102.71152709670307" departLane="random" departSpeed="10" />
<vehicle id="W2E38" type="standard_car" route="W2E" depart="102.98599973042697" departLane="random" departSpeed="10" />
<vehicle id="N2E39" type="standard_car" route="N2E" depart="102.99619469018897" departLane="random" departSpeed="10" />
<vehicle id="S2N40" type="standard_car" route="S2N" depart="105.62082769834275" departLane="random" departSpeed="10" />
<vehicle id="W2E41" type="standard_car" route="W2E" depart="107.36444839403671" departLane="random" departSpeed="10" />
<vehicle id="W2E42" type="standard_car" route="W2E" depart="113.40445897137413" departLane="random" departSpeed="10" />
<vehicle id="N2S43" type="standard_car" route="N2S" depart="114.67790303094165" departLane="random" departSpeed="10" />
<vehicle id="N2E44" type="standard_car" route="N2E" depart="116.69075663668266" departLane="random" departSpeed="10" />
<vehicle id="W2S45" type="standard_car" route="W2S" depart="117.75946841283111" departLane="random" departSpeed="10" />
<vehicle id="S2E46" type="standard_car" route="S2E" depart="118.19739180338485" departLane="random" departSpeed="10" />
<vehicle id="E2W47" type="standard_car" route="E2W" depart="126.80322883296611" departLane="random" departSpeed="10" />
<vehicle id="W2E48" type="standard_car" route="W2E" depart="129.2149546214117" departLane="random" departSpeed="10" />
<vehicle id="N2E49" type="standard_car" route="N2E" depart="136.36966666410254" departLane="random" departSpeed="10" />
<vehicle id="N2S50" type="standard_car" route="N2S" depart="141.11495446013694" departLane="random" departSpeed="10" />
<vehicle id="E2S51" type="standard_car" route="E2S" depart="159.26744191016445" departLane="random" departSpeed="10" />
<vehicle id="E2W52" type="standard_car" route="E2W" depart="162.83263898272503" departLane="random" departSpeed="10" />
<vehicle id="E2S53" type="standard_car" route="E2S" depart="170.53800548492978" departLane="random" departSpeed="10" />
<vehicle id="S2E54" type="standard_car" route="S2E" depart="172.35380115780748" departLane="random" departSpeed="10" />
<vehicle id="E2S55" type="standard_car" route="E2S" depart="179.93837433352243" departLane="random" departSpeed="10" />
<vehicle id="E2W56" type="standard_car" route="E2W" depart="191.34524356576304" departLane="random" departSpeed="10" />
<vehicle id="E2S57" type="standard_car" route="E2S" depart="200.0" departLane="random" departSpeed="10" />
</routes>
