<?xml version="1.0" encoding="UTF-8"?>

            <routes xmlns:xsi="http://www.w3.org/2001/XMLSchema-instance">
                  
            <vType accel="1.0" decel="4.5" id="standard_car" length="5.0" minGap="2.5" maxSpeed="25" sigma="0.5" />) 
            
            <route id="N2W" edges="-125514711 125514713"/>
            <route id="N2S" edges="-125514711 -125514709"/>
            <route id="N2E" edges="-125514711 -548975769"/>     
            <route id="W2N" edges="-125514713 125514711"/>
            <route id="W2E" edges="-125514713 -548975769"/>
            <route id="W2S" edges="-125514711 -125514709"/>
            <route id="S2W" edges="125514709 125514713"/>
            <route id="S2N" edges="125514709 125514711"/>
            <route id="S2E" edges="-125514711 -548975769"/>
            <route id="E2S" edges="548975769 -125514709"/>
            <route id="E2W" edges="548975769 125514713"/>
            <route id="E2N" edges="548975769 125514711"/>
            
<vehicle id="N2S0" type="standard_car" route="N2S" depart="16.408007537098392" departLane="random" departSpeed="10" />
<vehicle id="N2S1" type="standard_car" route="N2S" depart="17.176547439182983" departLane="random" departSpeed="10" />
<vehicle id="N2S2" type="standard_car" route="N2S" depart="19.31200308897013" departLane="random" departSpeed="10" />
<vehicle id="W2S3" type="standard_car" route="W2S" depart="19.334203976169135" departLane="random" departSpeed="10" />
<vehicle id="W2E4" type="standard_car" route="W2E" depart="19.582652301109434" departLane="random" departSpeed="10" />
<vehicle id="S2N5" type="standard_car" route="S2N" depart="19.938338348137727" departLane="random" departSpeed="10" />
<vehicle id="E2W6" type="standard_car" route="E2W" depart="20.030131834767584" departLane="random" departSpeed="10" />
<vehicle id="E2W7" type="standard_car" route="E2W" depart="20.39859242501877" departLane="random" departSpeed="10" />
<vehicle id="W2E8" type="standard_car" route="W2E" depart="25.155065637426198" departLane="random" departSpeed="10" />
<vehicle id="N2S9" type="standard_car" route="N2S" depart="30.39442832847719" departLane="random" departSpeed="10" />
<vehicle id="N2S10" type="standard_car" route="N2S" depart="31.35917240469624" departLane="random" departSpeed="10" />
<vehicle id="E2W11" type="standard_car" route="E2W" depart="34.76522794237683" departLane="random" departSpeed="10" />
<vehicle id="S2N12" type="standard_car" route="S2N" depart="35.02104716722489" departLane="random" departSpeed="10" />
<vehicle id="S2N13" type="standard_car" route="S2N" depart="35.88762834054124" departLane="random" departSpeed="10" />
<vehicle id="S2N14" type="standard_car" route="S2N" depart="36.35570698846692" departLane="random" departSpeed="10" />
<vehicle id="W2E15" type="standard_car" route="W2E" depart="37.92991900503996" departLane="random" departSpeed="10" />
<vehicle id="E2W16" type="standard_car" route="E2W" depart="38.170774408236156" departLane="random" departSpeed="10" />
<vehicle id="W2E17" type="standard_car" route="W2E" depart="41.06743932367415" departLane="random" departSpeed="10" />
<vehicle id="E2W18" type="standard_car" route="E2W" depart="41.66325077404079" departLane="random" departSpeed="10" />
<vehicle id="S2N19" type="standard_car" route="S2N" depart="43.129474207989304" departLane="random" departSpeed="10" />
<vehicle id="W2E20" type="standard_car" route="W2E" depart="44.614287010922396" departLane="random" departSpeed="10" />
<vehicle id="E2W21" type="standard_car" route="E2W" depart="44.87565224025343" departLane="random" departSpeed="10" />
<vehicle id="E2W22" type="standard_car" route="E2W" depart="46.09659820054827" departLane="random" departSpeed="10" />
<vehicle id="W2E23" type="standard_car" route="W2E" depart="46.36543075274787" departLane="random" departSpeed="10" />
<vehicle id="E2N24" type="standard_car" route="E2N" depart="46.44882757365599" departLane="random" departSpeed="10" />
<vehicle id="E2W25" type="standard_car" route="E2W" depart="46.65417007849312" departLane="random" departSpeed="10" />
<vehicle id="W2E26" type="standard_car" route="W2E" depart="46.71510603127843" departLane="random" departSpeed="10" />
<vehicle id="E2W27" type="standard_car" route="E2W" depart="46.81253358033325" departLane="random" departSpeed="10" />
<vehicle id="W2E28" type="standard_car" route="W2E" depart="48.444685274920715" departLane="random" departSpeed="10" />
<vehicle id="W2S29" type="standard_car" route="W2S" depart="48.6786671673274" departLane="random" departSpeed="10" />
<vehicle id="N2S30" type="standard_car" route="N2S" depart="49.89610783434259" departLane="random" departSpeed="10" />
<vehicle id="E2W31" type="standard_car" route="E2W" depart="49.91251632773667" departLane="random" departSpeed="10" />
<vehicle id="E2W32" type="standard_car" route="E2W" depart="49.97158708679812" departLane="random" departSpeed="10" />
<vehicle id="N2S33" type="standard_car" route="N2S" depart="50.05699108560068" departLane="random" departSpeed="10" />
<vehicle id="N2S34" type="standard_car" route="N2S" depart="50.726363210468165" departLane="random" departSpeed="10" />
<vehicle id="W2S35" type="standard_car" route="W2S" depart="54.66367952195531" departLane="random" departSpeed="10" />
<vehicle id="E2W36" type="standard_car" route="E2W" depart="56.53651496436169" departLane="random" departSpeed="10" />
<vehicle id="W2E37" type="standard_car" route="W2E" depart="56.76891821438127" departLane="random" departSpeed="10" />
<vehicle id="N2S38" type="standard_car" route="N2S" depart="56.78101794658117" departLane="random" departSpeed="10" />
<vehicle id="S2N39" type="standard_car" route="S2N" depart="57.410604150772684" departLane="random" departSpeed="10" />
<vehicle id="E2W40" type="standard_car" route="E2W" depart="57.46599051456142" departLane="random" departSpeed="10" />
<vehicle id="W2E41" type="standard_car" route="W2E" depart="57.76898545936865" departLane="random" departSpeed="10" />
<vehicle id="E2W42" type="standard_car" route="E2W" depart="60.110495991153826" departLane="random" departSpeed="10" />
<vehicle id="W2E43" type="standard_car" route="W2E" depart="61.877212825539054" departLane="random" departSpeed="10" />
<vehicle id="E2S44" type="standard_car" route="E2S" depart="61.92861983677833" departLane="random" departSpeed="10" />
<vehicle id="S2N45" type="standard_car" route="S2N" depart="63.24928138922746" departLane="random" departSpeed="10" />
<vehicle id="N2W46" type="standard_car" route="N2W" depart="64.55730709457576" departLane="random" departSpeed="10" />
<vehicle id="S2E47" type="standard_car" route="S2E" depart="64.72054574658152" departLane="random" departSpeed="10" />
<vehicle id="N2W48" type="standard_car" route="N2W" depart="66.73000496669462" departLane="random" departSpeed="10" />
<vehicle id="N2S49" type="standard_car" route="N2S" depart="67.5859738963432" departLane="random" departSpeed="10" />
<vehicle id="S2N50" type="standard_car" route="S2N" depart="68.63998133405585" departLane="random" departSpeed="10" />
<vehicle id="S2N51" type="standard_car" route="S2N" depart="69.10631237208894" departLane="random" departSpeed="10" />
<vehicle id="E2W52" type="standard_car" route="E2W" depart="69.68866264443521" departLane="random" departSpeed="10" />
<vehicle id="E2W53" type="standard_car" route="E2W" depart="69.76437552932929" departLane="random" departSpeed="10" />
<vehicle id="W2N54" type="standard_car" route="W2N" depart="69.88590560156534" departLane="random" departSpeed="10" />
<vehicle id="W2E55" type="standard_car" route="W2E" depart="70.077417489709" departLane="random" departSpeed="10" />
<vehicle id="N2S56" type="standard_car" route="N2S" depart="70.09364021053428" departLane="random" departSpeed="10" />
<vehicle id="N2S57" type="standard_car" route="N2S" depart="71.56340012321913" departLane="random" departSpeed="10" />
<vehicle id="S2N58" type="standard_car" route="S2N" depart="71.7490529878426" departLane="random" departSpeed="10" />
<vehicle id="N2S59" type="standard_car" route="N2S" depart="72.31074785810263" departLane="random" departSpeed="10" />
<vehicle id="S2N60" type="standard_car" route="S2N" depart="73.5043338894043" departLane="random" departSpeed="10" />
<vehicle id="N2S61" type="standard_car" route="N2S" depart="73.97948995073182" departLane="random" departSpeed="10" />
<vehicle id="N2S62" type="standard_car" route="N2S" depart="74.22298448105563" departLane="random" departSpeed="10" />
<vehicle id="S2N63" type="standard_car" route="S2N" depart="74.68033336668194" departLane="random" departSpeed="10" />
<vehicle id="N2W64" type="standard_car" route="N2W" depart="76.9116718141764" departLane="random" departSpeed="10" />
<vehicle id="S2N65" type="standard_car" route="S2N" depart="79.91732995620701" departLane="random" departSpeed="10" />
<vehicle id="E2W66" type="standard_car" route="E2W" depart="81.14791949813113" departLane="random" departSpeed="10" />
<vehicle id="S2N67" type="standard_car" route="S2N" depart="81.19538735682077" departLane="random" departSpeed="10" />
<vehicle id="S2N68" type="standard_car" route="S2N" depart="81.96102394578894" departLane="random" departSpeed="10" />
<vehicle id="S2W69" type="standard_car" route="S2W" depart="83.30009142778576" departLane="random" departSpeed="10" />
<vehicle id="W2S70" type="standard_car" route="W2S" depart="84.09212219923636" departLane="random" departSpeed="10" />
<vehicle id="W2E71" type="standard_car" route="W2E" depart="84.44468783376192" departLane="random" departSpeed="10" />
<vehicle id="E2W72" type="standard_car" route="E2W" depart="85.73842713879107" departLane="random" departSpeed="10" />
<vehicle id="E2W73" type="standard_car" route="E2W" depart="87.44315914204958" departLane="random" departSpeed="10" />
<vehicle id="W2E74" type="standard_car" route="W2E" depart="93.42277646304102" departLane="random" departSpeed="10" />
<vehicle id="N2S75" type="standard_car" route="N2S" depart="93.95705289530034" departLane="random" departSpeed="10" />
<vehicle id="E2W76" type="standard_car" route="E2W" depart="95.64102134587947" departLane="random" departSpeed="10" />
<vehicle id="N2W77" type="standard_car" route="N2W" depart="95.98303373404356" departLane="random" departSpeed="10" />
<vehicle id="N2W78" type="standard_car" route="N2W" depart="96.2794510915294" departLane="random" departSpeed="10" />
<vehicle id="N2W79" type="standard_car" route="N2W" depart="96.52748882753896" departLane="random" departSpeed="10" />
<vehicle id="W2E80" type="standard_car" route="W2E" depart="96.8303159182388" departLane="random" departSpeed="10" />
<vehicle id="W2E81" type="standard_car" route="W2E" depart="98.9618885256696" departLane="random" departSpeed="10" />
<vehicle id="E2W82" type="standard_car" route="E2W" depart="99.02428566738472" departLane="random" departSpeed="10" />
<vehicle id="N2S83" type="standard_car" route="N2S" depart="100.53977065128046" departLane="random" departSpeed="10" />
<vehicle id="N2S84" type="standard_car" route="N2S" depart="100.63246867852212" departLane="random" departSpeed="10" />
<vehicle id="N2S85" type="standard_car" route="N2S" depart="100.89708122089792" departLane="random" departSpeed="10" />
<vehicle id="W2E86" type="standard_car" route="W2E" depart="101.57427594200632" departLane="random" departSpeed="10" />
<vehicle id="S2W87" type="standard_car" route="S2W" depart="103.71922026351157" departLane="random" departSpeed="10" />
<vehicle id="W2E88" type="standard_car" route="W2E" depart="106.01847048526827" departLane="random" departSpeed="10" />
<vehicle id="E2W89" type="standard_car" route="E2W" depart="106.2512194152874" departLane="random" departSpeed="10" />
<vehicle id="N2S90" type="standard_car" route="N2S" depart="108.58837244957805" departLane="random" departSpeed="10" />
<vehicle id="E2W91" type="standard_car" route="E2W" depart="109.20414477027147" departLane="random" departSpeed="10" />
<vehicle id="N2W92" type="standard_car" route="N2W" depart="110.5112147209461" departLane="random" departSpeed="10" />
<vehicle id="S2W93" type="standard_car" route="S2W" depart="114.90949340788043" departLane="random" departSpeed="10" />
<vehicle id="E2S94" type="standard_car" route="E2S" depart="115.40374557488092" departLane="random" departSpeed="10" />
<vehicle id="E2N95" type="standard_car" route="E2N" depart="116.75738230428203" departLane="random" departSpeed="10" />
<vehicle id="W2E96" type="standard_car" route="W2E" depart="118.11640219141061" departLane="random" departSpeed="10" />
<vehicle id="N2S97" type="standard_car" route="N2S" depart="122.93881560374895" departLane="random" departSpeed="10" />
<vehicle id="N2S98" type="standard_car" route="N2S" depart="126.03356918759738" departLane="random" departSpeed="10" />
<vehicle id="E2W99" type="standard_car" route="E2W" depart="130.62855790201232" departLane="random" departSpeed="10" />
<vehicle id="N2S100" type="standard_car" route="N2S" depart="132.3022385172284" departLane="random" departSpeed="10" />
<vehicle id="E2S101" type="standard_car" route="E2S" depart="139.12295482018" departLane="random" departSpeed="10" />
<vehicle id="E2N102" type="standard_car" route="E2N" depart="140.853644880116" departLane="random" departSpeed="10" />
<vehicle id="N2E103" type="standard_car" route="N2E" depart="141.12492318944442" departLane="random" departSpeed="10" />
<vehicle id="E2W104" type="standard_car" route="E2W" depart="142.10053742675655" departLane="random" departSpeed="10" />
<vehicle id="N2S105" type="standard_car" route="N2S" depart="143.7340194678991" departLane="random" departSpeed="10" />
<vehicle id="N2E106" type="standard_car" route="N2E" depart="150.81374214553003" departLane="random" departSpeed="10" />
<vehicle id="E2W107" type="standard_car" route="E2W" depart="151.61700554176971" departLane="random" departSpeed="10" />
<vehicle id="N2S108" type="standard_car" route="N2S" depart="158.33999657054716" departLane="random" departSpeed="10" />
<vehicle id="S2W109" type="standard_car" route="S2W" depart="164.68507486300263" departLane="random" departSpeed="10" />
<vehicle id="W2S110" type="standard_car" route="W2S" depart="168.15670359394338" departLane="random" departSpeed="10" />
<vehicle id="S2W111" type="standard_car" route="S2W" depart="174.51806083360907" departLane="random" departSpeed="10" />
<vehicle id="N2S112" type="standard_car" route="N2S" depart="179.93308791435592" departLane="random" departSpeed="10" />
<vehicle id="E2W113" type="standard_car" route="E2W" depart="200.0" departLane="random" departSpeed="10" />
</routes>
