<?xml version="1.0" encoding="UTF-8"?>

            <routes xmlns:xsi="http://www.w3.org/2001/XMLSchema-instance">
   
            <vType accel="1.0" decel="4.5" id="standard_car" length="5.0" minGap="2.5" maxSpeed="25" sigma="0.5" />) 
            
            <route id="N2W" edges="-125514711 125514713"/>
            <route id="N2S" edges="-125514711 -125514709"/>
            <route id="N2E" edges="-125514711 -548975769"/>     
            <route id="W2N" edges="-125514713 125514711"/>
            <route id="W2E" edges="-125514713 -548975769"/>
            <route id="W2S" edges="-125514711 -125514709"/>
            <route id="S2W" edges="125514709 125514713"/>
            <route id="S2N" edges="125514709 125514711"/>
            <route id="S2E" edges="-125514711 -548975769"/>
            <route id="E2S" edges="548975769 -125514709"/>
            <route id="E2W" edges="548975769 125514713"/>
            <route id="E2N" edges="548975769 125514711"/>
            
<vehicle id="S2E0" type="standard_car" route="S2E" depart="33.97828885139642" departLane="random" departSpeed="10" />
<vehicle id="E2W1" type="standard_car" route="E2W" depart="36.7597394773318" departLane="random" departSpeed="10" />
<vehicle id="E2W2" type="standard_car" route="E2W" depart="36.91995259456308" departLane="random" departSpeed="10" />
<vehicle id="W2E3" type="standard_car" route="W2E" depart="37.301601654907955" departLane="random" departSpeed="10" />
<vehicle id="E2W4" type="standard_car" route="E2W" depart="38.13375866330429" departLane="random" departSpeed="10" />
<vehicle id="S2N5" type="standard_car" route="S2N" depart="41.42022871987075" departLane="random" departSpeed="10" />
<vehicle id="E2W6" type="standard_car" route="E2W" depart="47.36616951861428" departLane="random" departSpeed="10" />
<vehicle id="N2S7" type="standard_car" route="N2S" depart="47.71407692775504" departLane="random" departSpeed="10" />
<vehicle id="S2N8" type="standard_car" route="S2N" depart="54.27775038206707" departLane="random" departSpeed="10" />
<vehicle id="W2E9" type="standard_car" route="W2E" depart="55.42325999588812" departLane="random" departSpeed="10" />
<vehicle id="W2E10" type="standard_car" route="W2E" depart="56.06628171735183" departLane="random" departSpeed="10" />
<vehicle id="W2E11" type="standard_car" route="W2E" depart="56.856431661304555" departLane="random" departSpeed="10" />
<vehicle id="S2N12" type="standard_car" route="S2N" depart="57.17182447954423" departLane="random" departSpeed="10" />
<vehicle id="E2W13" type="standard_car" route="E2W" depart="58.95028388246657" departLane="random" departSpeed="10" />
<vehicle id="W2E14" type="standard_car" route="W2E" depart="64.11658913887321" departLane="random" departSpeed="10" />
<vehicle id="W2E15" type="standard_car" route="W2E" depart="64.17039306979994" departLane="random" departSpeed="10" />
<vehicle id="E2W16" type="standard_car" route="E2W" depart="67.10298602953755" departLane="random" departSpeed="10" />
<vehicle id="N2S17" type="standard_car" route="N2S" depart="68.83987349467701" departLane="random" departSpeed="10" />
<vehicle id="S2N18" type="standard_car" route="S2N" depart="69.54414651661989" departLane="random" departSpeed="10" />
<vehicle id="W2E19" type="standard_car" route="W2E" depart="71.03616616645418" departLane="random" departSpeed="10" />
<vehicle id="S2N20" type="standard_car" route="S2N" depart="73.62426984081807" departLane="random" departSpeed="10" />
<vehicle id="E2W21" type="standard_car" route="E2W" depart="73.91627154445275" departLane="random" departSpeed="10" />
<vehicle id="E2W22" type="standard_car" route="E2W" depart="86.47431582437774" departLane="random" departSpeed="10" />
<vehicle id="W2N23" type="standard_car" route="W2N" depart="91.27127023819676" departLane="random" departSpeed="10" />
<vehicle id="N2E24" type="standard_car" route="N2E" depart="95.27602479671418" departLane="random" departSpeed="10" />
<vehicle id="W2E25" type="standard_car" route="W2E" depart="96.54885318377393" departLane="random" departSpeed="10" />
<vehicle id="E2W26" type="standard_car" route="E2W" depart="98.14949338875199" departLane="random" departSpeed="10" />
<vehicle id="W2E27" type="standard_car" route="W2E" depart="101.68723363892376" departLane="random" departSpeed="10" />
<vehicle id="S2N28" type="standard_car" route="S2N" depart="103.34002669945221" departLane="random" departSpeed="10" />
<vehicle id="E2W29" type="standard_car" route="E2W" depart="108.24769941696495" departLane="random" departSpeed="10" />
<vehicle id="W2E30" type="standard_car" route="W2E" depart="108.76617981311252" departLane="random" departSpeed="10" />
<vehicle id="S2E31" type="standard_car" route="S2E" depart="108.9049905302568" departLane="random" departSpeed="10" />
<vehicle id="S2N32" type="standard_car" route="S2N" depart="108.91297059538316" departLane="random" departSpeed="10" />
<vehicle id="N2S33" type="standard_car" route="N2S" depart="112.85751823694427" departLane="random" departSpeed="10" />
<vehicle id="W2E34" type="standard_car" route="W2E" depart="113.84228248160369" departLane="random" departSpeed="10" />
<vehicle id="W2E35" type="standard_car" route="W2E" depart="129.98732721232318" departLane="random" departSpeed="10" />
<vehicle id="S2N36" type="standard_car" route="S2N" depart="133.93179159138256" departLane="random" departSpeed="10" />
<vehicle id="S2N37" type="standard_car" route="S2N" depart="134.35962084971652" departLane="random" departSpeed="10" />
<vehicle id="N2S38" type="standard_car" route="N2S" depart="139.2569660138799" departLane="random" departSpeed="10" />
<vehicle id="N2S39" type="standard_car" route="N2S" depart="140.1366338302861" departLane="random" departSpeed="10" />
<vehicle id="W2N40" type="standard_car" route="W2N" depart="141.08148418499678" departLane="random" departSpeed="10" />
<vehicle id="E2N41" type="standard_car" route="E2N" depart="147.49150411926607" departLane="random" departSpeed="10" />
<vehicle id="S2N42" type="standard_car" route="S2N" depart="152.63093209262337" departLane="random" departSpeed="10" />
<vehicle id="N2W43" type="standard_car" route="N2W" depart="152.93257415192505" departLane="random" departSpeed="10" />
<vehicle id="S2N44" type="standard_car" route="S2N" depart="153.1929380537037" departLane="random" departSpeed="10" />
<vehicle id="N2E45" type="standard_car" route="N2E" depart="156.2960185681527" departLane="random" departSpeed="10" />
<vehicle id="W2S46" type="standard_car" route="W2S" depart="158.20686662873328" departLane="random" departSpeed="10" />
<vehicle id="N2W47" type="standard_car" route="N2W" depart="159.2505497472" departLane="random" departSpeed="10" />
<vehicle id="N2S48" type="standard_car" route="N2S" depart="159.5082364643711" departLane="random" departSpeed="10" />
<vehicle id="S2E49" type="standard_car" route="S2E" depart="161.1219487848194" departLane="random" departSpeed="10" />
<vehicle id="E2W50" type="standard_car" route="E2W" depart="161.32820716369943" departLane="random" departSpeed="10" />
<vehicle id="N2S51" type="standard_car" route="N2S" depart="163.68763546613047" departLane="random" departSpeed="10" />
<vehicle id="W2E52" type="standard_car" route="W2E" depart="168.4903395480354" departLane="random" departSpeed="10" />
<vehicle id="E2W53" type="standard_car" route="E2W" depart="173.52709736016593" departLane="random" departSpeed="10" />
<vehicle id="W2E54" type="standard_car" route="W2E" depart="177.41648894358667" departLane="random" departSpeed="10" />
<vehicle id="E2W55" type="standard_car" route="E2W" depart="179.35510476992042" departLane="random" departSpeed="10" />
<vehicle id="S2E56" type="standard_car" route="S2E" depart="193.349569673995" departLane="random" departSpeed="10" />
<vehicle id="S2N57" type="standard_car" route="S2N" depart="211.01128705832127" departLane="random" departSpeed="10" />
<vehicle id="E2W58" type="standard_car" route="E2W" depart="213.26035067265371" departLane="random" departSpeed="10" />
<vehicle id="E2N59" type="standard_car" route="E2N" depart="215.20123976329754" departLane="random" departSpeed="10" />
<vehicle id="E2W60" type="standard_car" route="E2W" depart="219.04139475705423" departLane="random" departSpeed="10" />
<vehicle id="S2N61" type="standard_car" route="S2N" depart="223.2540237992939" departLane="random" departSpeed="10" />
<vehicle id="S2E62" type="standard_car" route="S2E" depart="223.93197499830686" departLane="random" departSpeed="10" />
<vehicle id="N2S63" type="standard_car" route="N2S" depart="224.5160291170726" departLane="random" departSpeed="10" />
<vehicle id="N2W64" type="standard_car" route="N2W" depart="231.8621368320235" departLane="random" departSpeed="10" />
<vehicle id="S2N65" type="standard_car" route="S2N" depart="232.74346983142297" departLane="random" departSpeed="10" />
<vehicle id="S2N66" type="standard_car" route="S2N" depart="236.42586000617462" departLane="random" departSpeed="10" />
<vehicle id="N2S67" type="standard_car" route="N2S" depart="238.86624291488033" departLane="random" departSpeed="10" />
<vehicle id="W2E68" type="standard_car" route="W2E" depart="248.18546642760188" departLane="random" departSpeed="10" />
<vehicle id="W2E69" type="standard_car" route="W2E" depart="248.41701412199617" departLane="random" departSpeed="10" />
<vehicle id="N2S70" type="standard_car" route="N2S" depart="260.9388859546232" departLane="random" departSpeed="10" />
<vehicle id="W2E71" type="standard_car" route="W2E" depart="263.0037282969493" departLane="random" departSpeed="10" />
<vehicle id="W2N72" type="standard_car" route="W2N" depart="272.08047109272957" departLane="random" departSpeed="10" />
<vehicle id="W2E73" type="standard_car" route="W2E" depart="297.0722159740915" departLane="random" departSpeed="10" />
<vehicle id="N2S74" type="standard_car" route="N2S" depart="400.0" departLane="random" departSpeed="10" />
</routes>
