<?xml version="1.0" encoding="UTF-8"?>

            <routes xmlns:xsi="http://www.w3.org/2001/XMLSchema-instance">
   
            <vType accel="1.0" decel="4.5" id="standard_car" length="5.0" minGap="2.5" maxSpeed="25" sigma="0.5" />) 
            
            <route id="N2W" edges="-125514711 125514713"/>
            <route id="N2S" edges="-125514711 -125514709"/>
            <route id="N2E" edges="-125514711 -548975769"/>     
            <route id="W2N" edges="-125514713 125514711"/>
            <route id="W2E" edges="-125514713 -548975769"/>
            <route id="W2S" edges="-125514711 -125514709"/>
            <route id="S2W" edges="125514709 125514713"/>
            <route id="S2N" edges="125514709 125514711"/>
            <route id="S2E" edges="-125514711 -548975769"/>
            <route id="E2S" edges="548975769 -125514709"/>
            <route id="E2W" edges="548975769 125514713"/>
            <route id="E2N" edges="548975769 125514711"/>
            
<vehicle id="N2S0" type="standard_car" route="N2S" depart="18.017001705680244" departLane="random" departSpeed="10" />
<vehicle id="W2E1" type="standard_car" route="W2E" depart="29.99810759714518" departLane="random" departSpeed="10" />
<vehicle id="E2W2" type="standard_car" route="E2W" depart="30.691037235646665" departLane="random" departSpeed="10" />
<vehicle id="E2S3" type="standard_car" route="E2S" depart="36.61072286339218" departLane="random" departSpeed="10" />
<vehicle id="S2E4" type="standard_car" route="S2E" depart="46.543044310322344" departLane="random" departSpeed="10" />
<vehicle id="N2S5" type="standard_car" route="N2S" depart="50.22175170309698" departLane="random" departSpeed="10" />
<vehicle id="W2E6" type="standard_car" route="W2E" depart="50.41378496881867" departLane="random" departSpeed="10" />
<vehicle id="W2S7" type="standard_car" route="W2S" depart="52.77703276710841" departLane="random" departSpeed="10" />
<vehicle id="S2N8" type="standard_car" route="S2N" depart="57.77610393136391" departLane="random" departSpeed="10" />
<vehicle id="E2W9" type="standard_car" route="E2W" depart="61.602575356165694" departLane="random" departSpeed="10" />
<vehicle id="S2N10" type="standard_car" route="S2N" depart="63.39106143114409" departLane="random" departSpeed="10" />
<vehicle id="W2E11" type="standard_car" route="W2E" depart="64.93208315652511" departLane="random" departSpeed="10" />
<vehicle id="S2N12" type="standard_car" route="S2N" depart="82.44738527287731" departLane="random" departSpeed="10" />
<vehicle id="N2S13" type="standard_car" route="N2S" depart="88.0191994981847" departLane="random" departSpeed="10" />
<vehicle id="W2E14" type="standard_car" route="W2E" depart="91.39641578052321" departLane="random" departSpeed="10" />
<vehicle id="S2N15" type="standard_car" route="S2N" depart="93.25026911650814" departLane="random" departSpeed="10" />
<vehicle id="E2W16" type="standard_car" route="E2W" depart="95.37028481143697" departLane="random" departSpeed="10" />
<vehicle id="N2E17" type="standard_car" route="N2E" depart="97.51575204302924" departLane="random" departSpeed="10" />
<vehicle id="N2S18" type="standard_car" route="N2S" depart="98.29228610220595" departLane="random" departSpeed="10" />
<vehicle id="N2W19" type="standard_car" route="N2W" depart="99.83969720195914" departLane="random" departSpeed="10" />
<vehicle id="N2S20" type="standard_car" route="N2S" depart="101.19996817111927" departLane="random" departSpeed="10" />
<vehicle id="W2E21" type="standard_car" route="W2E" depart="103.11345165882952" departLane="random" departSpeed="10" />
<vehicle id="W2E22" type="standard_car" route="W2E" depart="106.70076685494051" departLane="random" departSpeed="10" />
<vehicle id="E2S23" type="standard_car" route="E2S" depart="107.03642071013252" departLane="random" departSpeed="10" />
<vehicle id="N2S24" type="standard_car" route="N2S" depart="107.05499259871394" departLane="random" departSpeed="10" />
<vehicle id="W2E25" type="standard_car" route="W2E" depart="107.11244362931818" departLane="random" departSpeed="10" />
<vehicle id="N2S26" type="standard_car" route="N2S" depart="113.02773729480386" departLane="random" departSpeed="10" />
<vehicle id="N2S27" type="standard_car" route="N2S" depart="117.53935188640578" departLane="random" departSpeed="10" />
<vehicle id="N2S28" type="standard_car" route="N2S" depart="122.55355741722872" departLane="random" departSpeed="10" />
<vehicle id="W2E29" type="standard_car" route="W2E" depart="124.21367133356881" departLane="random" departSpeed="10" />
<vehicle id="W2N30" type="standard_car" route="W2N" depart="129.18213142676754" departLane="random" departSpeed="10" />
<vehicle id="E2W31" type="standard_car" route="E2W" depart="130.1377686314751" departLane="random" departSpeed="10" />
<vehicle id="S2N32" type="standard_car" route="S2N" depart="130.37380512985297" departLane="random" departSpeed="10" />
<vehicle id="S2N33" type="standard_car" route="S2N" depart="131.3168044459736" departLane="random" departSpeed="10" />
<vehicle id="S2N34" type="standard_car" route="S2N" depart="131.6806725252969" departLane="random" departSpeed="10" />
<vehicle id="W2N35" type="standard_car" route="W2N" depart="132.11333964476484" departLane="random" departSpeed="10" />
<vehicle id="W2E36" type="standard_car" route="W2E" depart="134.26928087432353" departLane="random" departSpeed="10" />
<vehicle id="W2E37" type="standard_car" route="W2E" depart="135.77311742339862" departLane="random" departSpeed="10" />
<vehicle id="W2E38" type="standard_car" route="W2E" depart="136.6785719265064" departLane="random" departSpeed="10" />
<vehicle id="E2W39" type="standard_car" route="E2W" depart="143.28642995668847" departLane="random" departSpeed="10" />
<vehicle id="E2N40" type="standard_car" route="E2N" depart="145.03822076363593" departLane="random" departSpeed="10" />
<vehicle id="S2W41" type="standard_car" route="S2W" depart="147.68188836645112" departLane="random" departSpeed="10" />
<vehicle id="E2W42" type="standard_car" route="E2W" depart="152.68739683853417" departLane="random" departSpeed="10" />
<vehicle id="S2N43" type="standard_car" route="S2N" depart="165.9345199556716" departLane="random" departSpeed="10" />
<vehicle id="W2E44" type="standard_car" route="W2E" depart="166.21355723729067" departLane="random" departSpeed="10" />
<vehicle id="W2E45" type="standard_car" route="W2E" depart="167.6959524283905" departLane="random" departSpeed="10" />
<vehicle id="N2S46" type="standard_car" route="N2S" depart="169.01615144562535" departLane="random" departSpeed="10" />
<vehicle id="S2N47" type="standard_car" route="S2N" depart="169.7527364278698" departLane="random" departSpeed="10" />
<vehicle id="W2E48" type="standard_car" route="W2E" depart="170.53051709563846" departLane="random" departSpeed="10" />
<vehicle id="E2S49" type="standard_car" route="E2S" depart="170.62973155653899" departLane="random" departSpeed="10" />
<vehicle id="E2W50" type="standard_car" route="E2W" depart="171.04101245670267" departLane="random" departSpeed="10" />
<vehicle id="E2W51" type="standard_car" route="E2W" depart="171.4165486456378" departLane="random" departSpeed="10" />
<vehicle id="N2W52" type="standard_car" route="N2W" depart="174.0655745502396" departLane="random" departSpeed="10" />
<vehicle id="N2S53" type="standard_car" route="N2S" depart="178.2821721816365" departLane="random" departSpeed="10" />
<vehicle id="N2S54" type="standard_car" route="N2S" depart="179.11856476548598" departLane="random" departSpeed="10" />
<vehicle id="S2N55" type="standard_car" route="S2N" depart="181.10349342605298" departLane="random" departSpeed="10" />
<vehicle id="E2N56" type="standard_car" route="E2N" depart="183.61979249250194" departLane="random" departSpeed="10" />
<vehicle id="W2E57" type="standard_car" route="W2E" depart="186.22876933969133" departLane="random" departSpeed="10" />
<vehicle id="S2N58" type="standard_car" route="S2N" depart="187.39150230879548" departLane="random" departSpeed="10" />
<vehicle id="N2S59" type="standard_car" route="N2S" depart="188.19883690262114" departLane="random" departSpeed="10" />
<vehicle id="W2E60" type="standard_car" route="W2E" depart="188.37411750020777" departLane="random" departSpeed="10" />
<vehicle id="N2S61" type="standard_car" route="N2S" depart="192.62418930805475" departLane="random" departSpeed="10" />
<vehicle id="S2N62" type="standard_car" route="S2N" depart="194.63222180817704" departLane="random" departSpeed="10" />
<vehicle id="W2E63" type="standard_car" route="W2E" depart="199.85515423164816" departLane="random" departSpeed="10" />
<vehicle id="W2E64" type="standard_car" route="W2E" depart="201.3806671440533" departLane="random" departSpeed="10" />
<vehicle id="E2W65" type="standard_car" route="E2W" depart="201.6358432483911" departLane="random" departSpeed="10" />
<vehicle id="W2E66" type="standard_car" route="W2E" depart="202.84553659257972" departLane="random" departSpeed="10" />
<vehicle id="W2E67" type="standard_car" route="W2E" depart="206.62584411948143" departLane="random" departSpeed="10" />
<vehicle id="E2N68" type="standard_car" route="E2N" depart="208.23114399346977" departLane="random" departSpeed="10" />
<vehicle id="S2N69" type="standard_car" route="S2N" depart="208.95196456540776" departLane="random" departSpeed="10" />
<vehicle id="N2W70" type="standard_car" route="N2W" depart="219.5218076222444" departLane="random" departSpeed="10" />
<vehicle id="E2W71" type="standard_car" route="E2W" depart="219.61301855636313" departLane="random" departSpeed="10" />
<vehicle id="E2W72" type="standard_car" route="E2W" depart="225.56112631787278" departLane="random" departSpeed="10" />
<vehicle id="N2S73" type="standard_car" route="N2S" depart="229.04095145374768" departLane="random" departSpeed="10" />
<vehicle id="S2N74" type="standard_car" route="S2N" depart="231.69464311997433" departLane="random" departSpeed="10" />
<vehicle id="E2W75" type="standard_car" route="E2W" depart="233.2432926943639" departLane="random" departSpeed="10" />
<vehicle id="N2W76" type="standard_car" route="N2W" depart="240.88157543637908" departLane="random" departSpeed="10" />
<vehicle id="S2N77" type="standard_car" route="S2N" depart="242.28007531416566" departLane="random" departSpeed="10" />
<vehicle id="E2W78" type="standard_car" route="E2W" depart="248.95691837780112" departLane="random" departSpeed="10" />
<vehicle id="N2S79" type="standard_car" route="N2S" depart="258.7593997293786" departLane="random" departSpeed="10" />
<vehicle id="E2S80" type="standard_car" route="E2S" depart="262.6539737023059" departLane="random" departSpeed="10" />
<vehicle id="W2E81" type="standard_car" route="W2E" depart="264.2784518197679" departLane="random" departSpeed="10" />
<vehicle id="E2W82" type="standard_car" route="E2W" depart="274.6965355930644" departLane="random" departSpeed="10" />
<vehicle id="E2N83" type="standard_car" route="E2N" depart="276.03491925070784" departLane="random" departSpeed="10" />
<vehicle id="S2N84" type="standard_car" route="S2N" depart="289.16272222044" departLane="random" departSpeed="10" />
<vehicle id="S2N85" type="standard_car" route="S2N" depart="291.23363999658" departLane="random" departSpeed="10" />
<vehicle id="S2N86" type="standard_car" route="S2N" depart="303.04132886956603" departLane="random" departSpeed="10" />
<vehicle id="S2N87" type="standard_car" route="S2N" depart="304.09542512378505" departLane="random" departSpeed="10" />
<vehicle id="E2W88" type="standard_car" route="E2W" depart="305.01375235743967" departLane="random" departSpeed="10" />
<vehicle id="W2N89" type="standard_car" route="W2N" depart="308.9825214030408" departLane="random" departSpeed="10" />
<vehicle id="W2E90" type="standard_car" route="W2E" depart="314.43854392558455" departLane="random" departSpeed="10" />
<vehicle id="W2N91" type="standard_car" route="W2N" depart="318.85020941013767" departLane="random" departSpeed="10" />
<vehicle id="S2N92" type="standard_car" route="S2N" depart="319.5817564050247" departLane="random" departSpeed="10" />
<vehicle id="N2S93" type="standard_car" route="N2S" depart="330.1469349686" departLane="random" departSpeed="10" />
<vehicle id="W2E94" type="standard_car" route="W2E" depart="332.29495258798653" departLane="random" departSpeed="10" />
<vehicle id="W2S95" type="standard_car" route="W2S" depart="333.655873546458" departLane="random" departSpeed="10" />
<vehicle id="W2E96" type="standard_car" route="W2E" depart="344.49706262175687" departLane="random" departSpeed="10" />
<vehicle id="W2E97" type="standard_car" route="W2E" depart="347.659881915012" departLane="random" departSpeed="10" />
<vehicle id="E2N98" type="standard_car" route="E2N" depart="395.51868808114256" departLane="random" departSpeed="10" />
<vehicle id="N2S99" type="standard_car" route="N2S" depart="500.0" departLane="random" departSpeed="10" />
</routes>
