<?xml version="1.0" encoding="UTF-8"?>

            <routes xmlns:xsi="http://www.w3.org/2001/XMLSchema-instance">
   
            <vType accel="1.0" decel="4.5" id="standard_car" length="5.0" minGap="2.5" maxSpeed="25" sigma="0.5" />) 
            
            <route id="N2W" edges="-125514711 125514713"/>
            <route id="N2S" edges="-125514711 -125514709"/>
            <route id="N2E" edges="-125514711 -548975769"/>     
            <route id="W2N" edges="-125514713 125514711"/>
            <route id="W2E" edges="-125514713 -548975769"/>
            <route id="W2S" edges="-125514711 -125514709"/>
            <route id="S2W" edges="125514709 125514713"/>
            <route id="S2N" edges="125514709 125514711"/>
            <route id="S2E" edges="-125514711 -548975769"/>
            <route id="E2S" edges="548975769 -125514709"/>
            <route id="E2W" edges="548975769 125514713"/>
            <route id="E2N" edges="548975769 125514711"/>
            
<vehicle id="E2W0" type="standard_car" route="E2W" depart="28.866848148341095" departLane="random" departSpeed="10" />
<vehicle id="W2E1" type="standard_car" route="W2E" depart="44.39924407629968" departLane="random" departSpeed="10" />
<vehicle id="W2E2" type="standard_car" route="W2E" depart="46.644402863094044" departLane="random" departSpeed="10" />
<vehicle id="S2N3" type="standard_car" route="S2N" depart="55.13521969069313" departLane="random" departSpeed="10" />
<vehicle id="E2W4" type="standard_car" route="E2W" depart="57.328544665626374" departLane="random" departSpeed="10" />
<vehicle id="S2N5" type="standard_car" route="S2N" depart="60.262824788078376" departLane="random" departSpeed="10" />
<vehicle id="E2W6" type="standard_car" route="E2W" depart="71.61253983100089" departLane="random" departSpeed="10" />
<vehicle id="S2N7" type="standard_car" route="S2N" depart="79.87997205132035" departLane="random" departSpeed="10" />
<vehicle id="N2S8" type="standard_car" route="N2S" depart="81.66614974916739" departLane="random" departSpeed="10" />
<vehicle id="E2W9" type="standard_car" route="E2W" depart="83.15764796526135" departLane="random" departSpeed="10" />
<vehicle id="S2W10" type="standard_car" route="S2W" depart="85.36127927288938" departLane="random" departSpeed="10" />
<vehicle id="N2S11" type="standard_car" route="N2S" depart="85.37142096862085" departLane="random" departSpeed="10" />
<vehicle id="S2N12" type="standard_car" route="S2N" depart="91.34038171324663" departLane="random" departSpeed="10" />
<vehicle id="N2E13" type="standard_car" route="N2E" depart="91.68367861746607" departLane="random" departSpeed="10" />
<vehicle id="E2W14" type="standard_car" route="E2W" depart="91.87944555497518" departLane="random" departSpeed="10" />
<vehicle id="E2W15" type="standard_car" route="E2W" depart="94.06235162530822" departLane="random" departSpeed="10" />
<vehicle id="W2E16" type="standard_car" route="W2E" depart="95.82998967273404" departLane="random" departSpeed="10" />
<vehicle id="N2S17" type="standard_car" route="N2S" depart="96.70545633354018" departLane="random" departSpeed="10" />
<vehicle id="E2N18" type="standard_car" route="E2N" depart="97.94833849906318" departLane="random" departSpeed="10" />
<vehicle id="S2E19" type="standard_car" route="S2E" depart="100.8832520779121" departLane="random" departSpeed="10" />
<vehicle id="S2N20" type="standard_car" route="S2N" depart="103.68070774812823" departLane="random" departSpeed="10" />
<vehicle id="W2N21" type="standard_car" route="W2N" depart="107.38431842583556" departLane="random" departSpeed="10" />
<vehicle id="E2W22" type="standard_car" route="E2W" depart="110.5090462647087" departLane="random" departSpeed="10" />
<vehicle id="W2E23" type="standard_car" route="W2E" depart="112.03021669227896" departLane="random" departSpeed="10" />
<vehicle id="N2S24" type="standard_car" route="N2S" depart="116.52314884745014" departLane="random" departSpeed="10" />
<vehicle id="N2S25" type="standard_car" route="N2S" depart="118.06056077292396" departLane="random" departSpeed="10" />
<vehicle id="S2E26" type="standard_car" route="S2E" depart="119.2790294873862" departLane="random" departSpeed="10" />
<vehicle id="N2S27" type="standard_car" route="N2S" depart="122.05723457617523" departLane="random" departSpeed="10" />
<vehicle id="N2S28" type="standard_car" route="N2S" depart="129.71961231437214" departLane="random" departSpeed="10" />
<vehicle id="N2S29" type="standard_car" route="N2S" depart="132.45417227357592" departLane="random" departSpeed="10" />
<vehicle id="N2W30" type="standard_car" route="N2W" depart="139.88463203370705" departLane="random" departSpeed="10" />
<vehicle id="W2E31" type="standard_car" route="W2E" depart="140.70638010640988" departLane="random" departSpeed="10" />
<vehicle id="N2S32" type="standard_car" route="N2S" depart="143.53674325417722" departLane="random" departSpeed="10" />
<vehicle id="N2W33" type="standard_car" route="N2W" depart="150.40457455754157" departLane="random" departSpeed="10" />
<vehicle id="S2N34" type="standard_car" route="S2N" depart="155.0143161543141" departLane="random" departSpeed="10" />
<vehicle id="E2W35" type="standard_car" route="E2W" depart="156.18031085606913" departLane="random" departSpeed="10" />
<vehicle id="E2W36" type="standard_car" route="E2W" depart="156.27841339402616" departLane="random" departSpeed="10" />
<vehicle id="S2N37" type="standard_car" route="S2N" depart="161.71593780430476" departLane="random" departSpeed="10" />
<vehicle id="W2E38" type="standard_car" route="W2E" depart="163.9747442592881" departLane="random" departSpeed="10" />
<vehicle id="W2E39" type="standard_car" route="W2E" depart="164.7337426133841" departLane="random" departSpeed="10" />
<vehicle id="N2S40" type="standard_car" route="N2S" depart="165.1143275338759" departLane="random" departSpeed="10" />
<vehicle id="N2S41" type="standard_car" route="N2S" depart="169.30654145378958" departLane="random" departSpeed="10" />
<vehicle id="N2S42" type="standard_car" route="N2S" depart="173.19467541173282" departLane="random" departSpeed="10" />
<vehicle id="E2W43" type="standard_car" route="E2W" depart="173.51880100284424" departLane="random" departSpeed="10" />
<vehicle id="S2W44" type="standard_car" route="S2W" depart="175.4360388186978" departLane="random" departSpeed="10" />
<vehicle id="E2W45" type="standard_car" route="E2W" depart="178.7091093745744" departLane="random" departSpeed="10" />
<vehicle id="E2S46" type="standard_car" route="E2S" depart="182.70039626389112" departLane="random" departSpeed="10" />
<vehicle id="S2N47" type="standard_car" route="S2N" depart="185.2488030701162" departLane="random" departSpeed="10" />
<vehicle id="E2W48" type="standard_car" route="E2W" depart="193.16418057435268" departLane="random" departSpeed="10" />
<vehicle id="N2W49" type="standard_car" route="N2W" depart="194.625644863749" departLane="random" departSpeed="10" />
<vehicle id="E2W50" type="standard_car" route="E2W" depart="204.92878734943065" departLane="random" departSpeed="10" />
<vehicle id="E2W51" type="standard_car" route="E2W" depart="206.6420330282707" departLane="random" departSpeed="10" />
<vehicle id="S2E52" type="standard_car" route="S2E" depart="207.61354457211246" departLane="random" departSpeed="10" />
<vehicle id="N2S53" type="standard_car" route="N2S" depart="217.99893960635944" departLane="random" departSpeed="10" />
<vehicle id="N2S54" type="standard_car" route="N2S" depart="218.45920898365952" departLane="random" departSpeed="10" />
<vehicle id="S2N55" type="standard_car" route="S2N" depart="221.06688610172375" departLane="random" departSpeed="10" />
<vehicle id="E2W56" type="standard_car" route="E2W" depart="226.75546055207036" departLane="random" departSpeed="10" />
<vehicle id="E2W57" type="standard_car" route="E2W" depart="227.97606742576627" departLane="random" departSpeed="10" />
<vehicle id="S2N58" type="standard_car" route="S2N" depart="230.49418553855293" departLane="random" departSpeed="10" />
<vehicle id="E2N59" type="standard_car" route="E2N" depart="235.56815303645925" departLane="random" departSpeed="10" />
<vehicle id="S2N60" type="standard_car" route="S2N" depart="236.67349529342013" departLane="random" departSpeed="10" />
<vehicle id="W2E61" type="standard_car" route="W2E" depart="236.67929590967825" departLane="random" departSpeed="10" />
<vehicle id="W2N62" type="standard_car" route="W2N" depart="241.52967097732062" departLane="random" departSpeed="10" />
<vehicle id="E2S63" type="standard_car" route="E2S" depart="251.27822183232928" departLane="random" departSpeed="10" />
<vehicle id="E2W64" type="standard_car" route="E2W" depart="252.58471640080293" departLane="random" departSpeed="10" />
<vehicle id="W2E65" type="standard_car" route="W2E" depart="256.83457147106765" departLane="random" departSpeed="10" />
<vehicle id="S2W66" type="standard_car" route="S2W" depart="266.1640111644338" departLane="random" departSpeed="10" />
<vehicle id="W2E67" type="standard_car" route="W2E" depart="268.2397478886718" departLane="random" departSpeed="10" />
<vehicle id="E2W68" type="standard_car" route="E2W" depart="268.3333358170868" departLane="random" departSpeed="10" />
<vehicle id="N2S69" type="standard_car" route="N2S" depart="272.6873527816942" departLane="random" departSpeed="10" />
<vehicle id="W2S70" type="standard_car" route="W2S" depart="273.98558549909995" departLane="random" departSpeed="10" />
<vehicle id="E2W71" type="standard_car" route="E2W" depart="284.37589267884533" departLane="random" departSpeed="10" />
<vehicle id="S2N72" type="standard_car" route="S2N" depart="286.25660639815356" departLane="random" departSpeed="10" />
<vehicle id="E2W73" type="standard_car" route="E2W" depart="286.9384117018902" departLane="random" departSpeed="10" />
<vehicle id="E2W74" type="standard_car" route="E2W" depart="289.8012018932271" departLane="random" departSpeed="10" />
<vehicle id="E2W75" type="standard_car" route="E2W" depart="292.5382237192556" departLane="random" departSpeed="10" />
<vehicle id="N2S76" type="standard_car" route="N2S" depart="292.62714775939304" departLane="random" departSpeed="10" />
<vehicle id="E2N77" type="standard_car" route="E2N" depart="301.28984737823333" departLane="random" departSpeed="10" />
<vehicle id="S2N78" type="standard_car" route="S2N" depart="303.42204885139273" departLane="random" departSpeed="10" />
<vehicle id="E2S79" type="standard_car" route="E2S" depart="304.4486379285205" departLane="random" departSpeed="10" />
<vehicle id="W2E80" type="standard_car" route="W2E" depart="304.9787201741706" departLane="random" departSpeed="10" />
<vehicle id="N2S81" type="standard_car" route="N2S" depart="305.86106526056443" departLane="random" departSpeed="10" />
<vehicle id="E2N82" type="standard_car" route="E2N" depart="322.9362135130816" departLane="random" departSpeed="10" />
<vehicle id="E2S83" type="standard_car" route="E2S" depart="335.4479649602915" departLane="random" departSpeed="10" />
<vehicle id="S2N84" type="standard_car" route="S2N" depart="342.87300892237363" departLane="random" departSpeed="10" />
<vehicle id="E2W85" type="standard_car" route="E2W" depart="344.2068135785826" departLane="random" departSpeed="10" />
<vehicle id="S2N86" type="standard_car" route="S2N" depart="353.1977934942272" departLane="random" departSpeed="10" />
<vehicle id="W2E87" type="standard_car" route="W2E" depart="360.0446286586695" departLane="random" departSpeed="10" />
<vehicle id="W2E88" type="standard_car" route="W2E" depart="376.6652191773787" departLane="random" departSpeed="10" />
<vehicle id="E2W89" type="standard_car" route="E2W" depart="378.79830772816206" departLane="random" departSpeed="10" />
<vehicle id="S2W90" type="standard_car" route="S2W" depart="386.6660994595172" departLane="random" departSpeed="10" />
<vehicle id="S2N91" type="standard_car" route="S2N" depart="398.62381812965134" departLane="random" departSpeed="10" />
<vehicle id="E2W92" type="standard_car" route="E2W" depart="415.528690582634" departLane="random" departSpeed="10" />
<vehicle id="N2S93" type="standard_car" route="N2S" depart="423.64192918757533" departLane="random" departSpeed="10" />
<vehicle id="E2W94" type="standard_car" route="E2W" depart="424.80529802022005" departLane="random" departSpeed="10" />
<vehicle id="W2S95" type="standard_car" route="W2S" depart="428.2113900373039" departLane="random" departSpeed="10" />
<vehicle id="W2N96" type="standard_car" route="W2N" depart="429.04501732111794" departLane="random" departSpeed="10" />
<vehicle id="W2N97" type="standard_car" route="W2N" depart="438.7358076905877" departLane="random" departSpeed="10" />
<vehicle id="S2N98" type="standard_car" route="S2N" depart="442.46144292197425" departLane="random" departSpeed="10" />
<vehicle id="E2N99" type="standard_car" route="E2N" depart="500.0" departLane="random" departSpeed="10" />
</routes>
