<?xml version="1.0" encoding="UTF-8"?>

            <routes xmlns:xsi="http://www.w3.org/2001/XMLSchema-instance">
                  
            <vType accel="1.0" decel="4.5" id="standard_car" length="5.0" minGap="2.5" maxSpeed="25" sigma="0.5" />) 
            
            <route id="N2W" edges="-125514711 125514713"/>
            <route id="N2S" edges="-125514711 -125514709"/>
            <route id="N2E" edges="-125514711 -548975769"/>     
            <route id="W2N" edges="-125514713 125514711"/>
            <route id="W2E" edges="-125514713 -548975769"/>
            <route id="W2S" edges="-125514711 -125514709"/>
            <route id="S2W" edges="125514709 125514713"/>
            <route id="S2N" edges="125514709 125514711"/>
            <route id="S2E" edges="-125514711 -548975769"/>
            <route id="E2S" edges="548975769 -125514709"/>
            <route id="E2W" edges="548975769 125514713"/>
            <route id="E2N" edges="548975769 125514711"/>
            
<vehicle id="N2S0" type="standard_car" route="N2S" depart="2.2927699214882207" departLane="random" departSpeed="10" />
<vehicle id="E2W1" type="standard_car" route="E2W" depart="3.26274769344607" departLane="random" departSpeed="10" />
<vehicle id="W2E2" type="standard_car" route="W2E" depart="4.731819113279453" departLane="random" departSpeed="10" />
<vehicle id="E2S3" type="standard_car" route="E2S" depart="5.292156502871346" departLane="random" departSpeed="10" />
<vehicle id="E2S4" type="standard_car" route="E2S" depart="5.7787900416473486" departLane="random" departSpeed="10" />
<vehicle id="N2S5" type="standard_car" route="N2S" depart="5.801663924165225" departLane="random" departSpeed="10" />
<vehicle id="E2W6" type="standard_car" route="E2W" depart="7.501392967983526" departLane="random" departSpeed="10" />
<vehicle id="E2S7" type="standard_car" route="E2S" depart="8.172595672771056" departLane="random" departSpeed="10" />
<vehicle id="N2S8" type="standard_car" route="N2S" depart="8.440861837534447" departLane="random" departSpeed="10" />
<vehicle id="N2S9" type="standard_car" route="N2S" depart="8.903741177533005" departLane="random" departSpeed="10" />
<vehicle id="N2S10" type="standard_car" route="N2S" depart="11.872655895295503" departLane="random" departSpeed="10" />
<vehicle id="E2W11" type="standard_car" route="E2W" depart="12.469432421881823" departLane="random" departSpeed="10" />
<vehicle id="E2W12" type="standard_car" route="E2W" depart="12.782611052188406" departLane="random" departSpeed="10" />
<vehicle id="N2S13" type="standard_car" route="N2S" depart="14.09660414657842" departLane="random" departSpeed="10" />
<vehicle id="W2E14" type="standard_car" route="W2E" depart="14.48214807035679" departLane="random" departSpeed="10" />
<vehicle id="W2E15" type="standard_car" route="W2E" depart="14.483037415567479" departLane="random" departSpeed="10" />
<vehicle id="E2W16" type="standard_car" route="E2W" depart="15.16932137841611" departLane="random" departSpeed="10" />
<vehicle id="W2E17" type="standard_car" route="W2E" depart="16.710090508885823" departLane="random" departSpeed="10" />
<vehicle id="W2N18" type="standard_car" route="W2N" depart="18.679757130058857" departLane="random" departSpeed="10" />
<vehicle id="W2S19" type="standard_car" route="W2S" depart="19.814050663561037" departLane="random" departSpeed="10" />
<vehicle id="S2N20" type="standard_car" route="S2N" depart="21.138520499638688" departLane="random" departSpeed="10" />
<vehicle id="W2E21" type="standard_car" route="W2E" depart="21.350722914630193" departLane="random" departSpeed="10" />
<vehicle id="E2W22" type="standard_car" route="E2W" depart="21.42726426320104" departLane="random" departSpeed="10" />
<vehicle id="W2E23" type="standard_car" route="W2E" depart="22.19698531936289" departLane="random" departSpeed="10" />
<vehicle id="E2S24" type="standard_car" route="E2S" depart="22.418068692470356" departLane="random" departSpeed="10" />
<vehicle id="E2N25" type="standard_car" route="E2N" depart="23.156777075950355" departLane="random" departSpeed="10" />
<vehicle id="S2N26" type="standard_car" route="S2N" depart="24.650084591714048" departLane="random" departSpeed="10" />
<vehicle id="S2N27" type="standard_car" route="S2N" depart="25.783980533737694" departLane="random" departSpeed="10" />
<vehicle id="E2S28" type="standard_car" route="E2S" depart="26.937162747591774" departLane="random" departSpeed="10" />
<vehicle id="S2W29" type="standard_car" route="S2W" depart="27.57743668854461" departLane="random" departSpeed="10" />
<vehicle id="N2S30" type="standard_car" route="N2S" depart="28.035645619576794" departLane="random" departSpeed="10" />
<vehicle id="E2N31" type="standard_car" route="E2N" depart="28.468547113463366" departLane="random" departSpeed="10" />
<vehicle id="E2W32" type="standard_car" route="E2W" depart="28.97601632582981" departLane="random" departSpeed="10" />
<vehicle id="N2S33" type="standard_car" route="N2S" depart="29.067424423790143" departLane="random" departSpeed="10" />
<vehicle id="E2W34" type="standard_car" route="E2W" depart="29.437132993702853" departLane="random" departSpeed="10" />
<vehicle id="S2N35" type="standard_car" route="S2N" depart="29.51157119250331" departLane="random" departSpeed="10" />
<vehicle id="N2W36" type="standard_car" route="N2W" depart="29.58328509504473" departLane="random" departSpeed="10" />
<vehicle id="S2N37" type="standard_car" route="S2N" depart="29.769816680580576" departLane="random" departSpeed="10" />
<vehicle id="S2W38" type="standard_car" route="S2W" depart="29.946725741775925" departLane="random" departSpeed="10" />
<vehicle id="W2E39" type="standard_car" route="W2E" depart="30.056777841417954" departLane="random" departSpeed="10" />
<vehicle id="S2N40" type="standard_car" route="S2N" depart="30.445595743941688" departLane="random" departSpeed="10" />
<vehicle id="S2N41" type="standard_car" route="S2N" depart="30.547788744409456" departLane="random" departSpeed="10" />
<vehicle id="E2W42" type="standard_car" route="E2W" depart="30.91783107721911" departLane="random" departSpeed="10" />
<vehicle id="N2S43" type="standard_car" route="N2S" depart="31.59486277404856" departLane="random" departSpeed="10" />
<vehicle id="E2W44" type="standard_car" route="E2W" depart="33.09573767992774" departLane="random" departSpeed="10" />
<vehicle id="N2S45" type="standard_car" route="N2S" depart="33.42586786748825" departLane="random" departSpeed="10" />
<vehicle id="W2S46" type="standard_car" route="W2S" depart="33.88472608353031" departLane="random" departSpeed="10" />
<vehicle id="W2S47" type="standard_car" route="W2S" depart="34.32903289722003" departLane="random" departSpeed="10" />
<vehicle id="S2N48" type="standard_car" route="S2N" depart="34.42551840299133" departLane="random" departSpeed="10" />
<vehicle id="E2W49" type="standard_car" route="E2W" depart="35.19218884082192" departLane="random" departSpeed="10" />
<vehicle id="N2S50" type="standard_car" route="N2S" depart="35.6514962883697" departLane="random" departSpeed="10" />
<vehicle id="S2E51" type="standard_car" route="S2E" depart="35.68231449392664" departLane="random" departSpeed="10" />
<vehicle id="S2N52" type="standard_car" route="S2N" depart="36.520395415290565" departLane="random" departSpeed="10" />
<vehicle id="W2E53" type="standard_car" route="W2E" depart="37.358763256224236" departLane="random" departSpeed="10" />
<vehicle id="N2E54" type="standard_car" route="N2E" depart="37.97428305164634" departLane="random" departSpeed="10" />
<vehicle id="S2N55" type="standard_car" route="S2N" depart="38.20710911305409" departLane="random" departSpeed="10" />
<vehicle id="W2E56" type="standard_car" route="W2E" depart="38.42006952054824" departLane="random" departSpeed="10" />
<vehicle id="W2E57" type="standard_car" route="W2E" depart="38.68859101997" departLane="random" departSpeed="10" />
<vehicle id="S2N58" type="standard_car" route="S2N" depart="38.95066408498371" departLane="random" departSpeed="10" />
<vehicle id="S2N59" type="standard_car" route="S2N" depart="39.09659584950487" departLane="random" departSpeed="10" />
<vehicle id="S2N60" type="standard_car" route="S2N" depart="39.10330662670795" departLane="random" departSpeed="10" />
<vehicle id="S2W61" type="standard_car" route="S2W" depart="40.09164543692641" departLane="random" departSpeed="10" />
<vehicle id="S2N62" type="standard_car" route="S2N" depart="40.5096891274778" departLane="random" departSpeed="10" />
<vehicle id="W2E63" type="standard_car" route="W2E" depart="41.029624973814414" departLane="random" departSpeed="10" />
<vehicle id="S2N64" type="standard_car" route="S2N" depart="41.17192161732447" departLane="random" departSpeed="10" />
<vehicle id="S2N65" type="standard_car" route="S2N" depart="41.33081171604011" departLane="random" departSpeed="10" />
<vehicle id="N2W66" type="standard_car" route="N2W" depart="41.47038887782296" departLane="random" departSpeed="10" />
<vehicle id="W2E67" type="standard_car" route="W2E" depart="41.830638264318516" departLane="random" departSpeed="10" />
<vehicle id="W2S68" type="standard_car" route="W2S" depart="42.13059445822069" departLane="random" departSpeed="10" />
<vehicle id="S2N69" type="standard_car" route="S2N" depart="42.27559815705537" departLane="random" departSpeed="10" />
<vehicle id="E2W70" type="standard_car" route="E2W" depart="42.37671193160639" departLane="random" departSpeed="10" />
<vehicle id="E2W71" type="standard_car" route="E2W" depart="42.6466307188439" departLane="random" departSpeed="10" />
<vehicle id="W2E72" type="standard_car" route="W2E" depart="43.269017373451504" departLane="random" departSpeed="10" />
<vehicle id="S2N73" type="standard_car" route="S2N" depart="43.525180010851315" departLane="random" departSpeed="10" />
<vehicle id="W2N74" type="standard_car" route="W2N" depart="43.76765507872255" departLane="random" departSpeed="10" />
<vehicle id="S2N75" type="standard_car" route="S2N" depart="43.92215390459683" departLane="random" departSpeed="10" />
<vehicle id="E2S76" type="standard_car" route="E2S" depart="44.968228480494005" departLane="random" departSpeed="10" />
<vehicle id="E2W77" type="standard_car" route="E2W" depart="45.621329169677644" departLane="random" departSpeed="10" />
<vehicle id="S2N78" type="standard_car" route="S2N" depart="45.94723497580134" departLane="random" departSpeed="10" />
<vehicle id="E2W79" type="standard_car" route="E2W" depart="47.41967462007478" departLane="random" departSpeed="10" />
<vehicle id="W2E80" type="standard_car" route="W2E" depart="47.42640324408784" departLane="random" departSpeed="10" />
<vehicle id="W2E81" type="standard_car" route="W2E" depart="47.66563855188239" departLane="random" departSpeed="10" />
<vehicle id="W2E82" type="standard_car" route="W2E" depart="47.78234640418065" departLane="random" departSpeed="10" />
<vehicle id="E2W83" type="standard_car" route="E2W" depart="48.065107692752065" departLane="random" departSpeed="10" />
<vehicle id="N2S84" type="standard_car" route="N2S" depart="48.088616952847744" departLane="random" departSpeed="10" />
<vehicle id="N2S85" type="standard_car" route="N2S" depart="48.46634138748968" departLane="random" departSpeed="10" />
<vehicle id="W2E86" type="standard_car" route="W2E" depart="48.482902421791295" departLane="random" departSpeed="10" />
<vehicle id="N2S87" type="standard_car" route="N2S" depart="48.691070665546526" departLane="random" departSpeed="10" />
<vehicle id="W2E88" type="standard_car" route="W2E" depart="49.02918305320024" departLane="random" departSpeed="10" />
<vehicle id="W2E89" type="standard_car" route="W2E" depart="49.3359464800586" departLane="random" departSpeed="10" />
<vehicle id="E2W90" type="standard_car" route="E2W" depart="50.03459702267591" departLane="random" departSpeed="10" />
<vehicle id="S2N91" type="standard_car" route="S2N" depart="50.643940449861425" departLane="random" departSpeed="10" />
<vehicle id="W2E92" type="standard_car" route="W2E" depart="50.80096250147328" departLane="random" departSpeed="10" />
<vehicle id="S2N93" type="standard_car" route="S2N" depart="50.91736700051827" departLane="random" departSpeed="10" />
<vehicle id="S2N94" type="standard_car" route="S2N" depart="51.02622990791459" departLane="random" departSpeed="10" />
<vehicle id="E2S95" type="standard_car" route="E2S" depart="51.206064593200814" departLane="random" departSpeed="10" />
<vehicle id="E2W96" type="standard_car" route="E2W" depart="51.643910260073525" departLane="random" departSpeed="10" />
<vehicle id="S2N97" type="standard_car" route="S2N" depart="51.858295228259045" departLane="random" departSpeed="10" />
<vehicle id="S2N98" type="standard_car" route="S2N" depart="52.33716367381271" departLane="random" departSpeed="10" />
<vehicle id="S2N99" type="standard_car" route="S2N" depart="52.623137792766286" departLane="random" departSpeed="10" />
<vehicle id="N2S100" type="standard_car" route="N2S" depart="52.977640748434915" departLane="random" departSpeed="10" />
<vehicle id="S2N101" type="standard_car" route="S2N" depart="53.21685613323841" departLane="random" departSpeed="10" />
<vehicle id="N2S102" type="standard_car" route="N2S" depart="53.318364637100004" departLane="random" departSpeed="10" />
<vehicle id="E2S103" type="standard_car" route="E2S" depart="53.5723087952174" departLane="random" departSpeed="10" />
<vehicle id="W2E104" type="standard_car" route="W2E" depart="54.089812394825806" departLane="random" departSpeed="10" />
<vehicle id="S2E105" type="standard_car" route="S2E" depart="54.16010603402416" departLane="random" departSpeed="10" />
<vehicle id="N2S106" type="standard_car" route="N2S" depart="54.36778999977114" departLane="random" departSpeed="10" />
<vehicle id="W2E107" type="standard_car" route="W2E" depart="54.86620214104734" departLane="random" departSpeed="10" />
<vehicle id="N2W108" type="standard_car" route="N2W" depart="54.8974766203006" departLane="random" departSpeed="10" />
<vehicle id="E2S109" type="standard_car" route="E2S" depart="55.039879702353915" departLane="random" departSpeed="10" />
<vehicle id="S2N110" type="standard_car" route="S2N" depart="55.072456388475274" departLane="random" departSpeed="10" />
<vehicle id="E2N111" type="standard_car" route="E2N" depart="55.168246752264906" departLane="random" departSpeed="10" />
<vehicle id="W2E112" type="standard_car" route="W2E" depart="55.3767953985048" departLane="random" departSpeed="10" />
<vehicle id="S2N113" type="standard_car" route="S2N" depart="55.734883148882865" departLane="random" departSpeed="10" />
<vehicle id="E2W114" type="standard_car" route="E2W" depart="57.19210609317411" departLane="random" departSpeed="10" />
<vehicle id="N2W115" type="standard_car" route="N2W" depart="57.40789465724095" departLane="random" departSpeed="10" />
<vehicle id="W2E116" type="standard_car" route="W2E" depart="58.020014025227674" departLane="random" departSpeed="10" />
<vehicle id="E2W117" type="standard_car" route="E2W" depart="58.158038603727746" departLane="random" departSpeed="10" />
<vehicle id="W2N118" type="standard_car" route="W2N" depart="58.26365151368379" departLane="random" departSpeed="10" />
<vehicle id="S2E119" type="standard_car" route="S2E" depart="58.301117970510795" departLane="random" departSpeed="10" />
<vehicle id="E2N120" type="standard_car" route="E2N" depart="58.301288309525" departLane="random" departSpeed="10" />
<vehicle id="N2S121" type="standard_car" route="N2S" depart="58.39975687147154" departLane="random" departSpeed="10" />
<vehicle id="W2S122" type="standard_car" route="W2S" depart="58.413661738181425" departLane="random" departSpeed="10" />
<vehicle id="N2S123" type="standard_car" route="N2S" depart="59.58354863783821" departLane="random" departSpeed="10" />
<vehicle id="W2E124" type="standard_car" route="W2E" depart="59.59182470872925" departLane="random" departSpeed="10" />
<vehicle id="W2E125" type="standard_car" route="W2E" depart="59.63105584960713" departLane="random" departSpeed="10" />
<vehicle id="S2N126" type="standard_car" route="S2N" depart="60.13809070037721" departLane="random" departSpeed="10" />
<vehicle id="S2N127" type="standard_car" route="S2N" depart="60.41325493907942" departLane="random" departSpeed="10" />
<vehicle id="N2S128" type="standard_car" route="N2S" depart="60.63368397039658" departLane="random" departSpeed="10" />
<vehicle id="N2S129" type="standard_car" route="N2S" depart="61.420553718220006" departLane="random" departSpeed="10" />
<vehicle id="S2N130" type="standard_car" route="S2N" depart="62.2299238336226" departLane="random" departSpeed="10" />
<vehicle id="W2E131" type="standard_car" route="W2E" depart="63.084025137551556" departLane="random" departSpeed="10" />
<vehicle id="S2N132" type="standard_car" route="S2N" depart="63.12728110370275" departLane="random" departSpeed="10" />
<vehicle id="N2S133" type="standard_car" route="N2S" depart="63.57255417966869" departLane="random" departSpeed="10" />
<vehicle id="W2E134" type="standard_car" route="W2E" depart="64.56600960366376" departLane="random" departSpeed="10" />
<vehicle id="E2W135" type="standard_car" route="E2W" depart="65.33954896584933" departLane="random" departSpeed="10" />
<vehicle id="E2W136" type="standard_car" route="E2W" depart="65.54260522726454" departLane="random" departSpeed="10" />
<vehicle id="S2N137" type="standard_car" route="S2N" depart="66.07171721300435" departLane="random" departSpeed="10" />
<vehicle id="W2E138" type="standard_car" route="W2E" depart="66.58839320770682" departLane="random" departSpeed="10" />
<vehicle id="N2W139" type="standard_car" route="N2W" depart="66.78720579089243" departLane="random" departSpeed="10" />
<vehicle id="S2N140" type="standard_car" route="S2N" depart="66.84193219080696" departLane="random" departSpeed="10" />
<vehicle id="S2N141" type="standard_car" route="S2N" depart="66.95302614170743" departLane="random" departSpeed="10" />
<vehicle id="W2N142" type="standard_car" route="W2N" depart="67.17510387415871" departLane="random" departSpeed="10" />
<vehicle id="E2W143" type="standard_car" route="E2W" depart="67.57728942199586" departLane="random" departSpeed="10" />
<vehicle id="N2S144" type="standard_car" route="N2S" depart="67.81368053630014" departLane="random" departSpeed="10" />
<vehicle id="S2N145" type="standard_car" route="S2N" depart="68.25870480269133" departLane="random" departSpeed="10" />
<vehicle id="N2E146" type="standard_car" route="N2E" depart="68.46165301407228" departLane="random" departSpeed="10" />
<vehicle id="N2S147" type="standard_car" route="N2S" depart="68.56372583816064" departLane="random" departSpeed="10" />
<vehicle id="S2N148" type="standard_car" route="S2N" depart="69.09325588479956" departLane="random" departSpeed="10" />
<vehicle id="W2E149" type="standard_car" route="W2E" depart="69.37862422895434" departLane="random" departSpeed="10" />
<vehicle id="N2E150" type="standard_car" route="N2E" depart="69.39515902507351" departLane="random" departSpeed="10" />
<vehicle id="W2E151" type="standard_car" route="W2E" depart="69.7195428111164" departLane="random" departSpeed="10" />
<vehicle id="E2W152" type="standard_car" route="E2W" depart="71.15356577820405" departLane="random" departSpeed="10" />
<vehicle id="S2N153" type="standard_car" route="S2N" depart="71.49641228175533" departLane="random" departSpeed="10" />
<vehicle id="E2W154" type="standard_car" route="E2W" depart="72.29749839754184" departLane="random" departSpeed="10" />
<vehicle id="E2N155" type="standard_car" route="E2N" depart="73.01843374334287" departLane="random" departSpeed="10" />
<vehicle id="E2W156" type="standard_car" route="E2W" depart="73.14312122768617" departLane="random" departSpeed="10" />
<vehicle id="E2W157" type="standard_car" route="E2W" depart="73.39866690469346" departLane="random" departSpeed="10" />
<vehicle id="E2W158" type="standard_car" route="E2W" depart="73.40000792295929" departLane="random" departSpeed="10" />
<vehicle id="W2E159" type="standard_car" route="W2E" depart="73.76833678837595" departLane="random" departSpeed="10" />
<vehicle id="E2W160" type="standard_car" route="E2W" depart="73.9505959872232" departLane="random" departSpeed="10" />
<vehicle id="W2E161" type="standard_car" route="W2E" depart="74.95476599394561" departLane="random" departSpeed="10" />
<vehicle id="W2N162" type="standard_car" route="W2N" depart="75.30198677222381" departLane="random" departSpeed="10" />
<vehicle id="N2S163" type="standard_car" route="N2S" depart="75.74851578948744" departLane="random" departSpeed="10" />
<vehicle id="E2W164" type="standard_car" route="E2W" depart="75.78555874677093" departLane="random" departSpeed="10" />
<vehicle id="S2E165" type="standard_car" route="S2E" depart="76.41622008585071" departLane="random" departSpeed="10" />
<vehicle id="N2S166" type="standard_car" route="N2S" depart="77.06491791459297" departLane="random" departSpeed="10" />
<vehicle id="S2N167" type="standard_car" route="S2N" depart="77.7456069197307" departLane="random" departSpeed="10" />
<vehicle id="N2W168" type="standard_car" route="N2W" depart="78.81964088935594" departLane="random" departSpeed="10" />
<vehicle id="W2E169" type="standard_car" route="W2E" depart="79.416283626264" departLane="random" departSpeed="10" />
<vehicle id="E2W170" type="standard_car" route="E2W" depart="80.95502579333728" departLane="random" departSpeed="10" />
<vehicle id="E2W171" type="standard_car" route="E2W" depart="81.11808371260676" departLane="random" departSpeed="10" />
<vehicle id="S2N172" type="standard_car" route="S2N" depart="81.82356086111373" departLane="random" departSpeed="10" />
<vehicle id="N2S173" type="standard_car" route="N2S" depart="81.92928098589167" departLane="random" departSpeed="10" />
<vehicle id="E2W174" type="standard_car" route="E2W" depart="81.98209571030173" departLane="random" departSpeed="10" />
<vehicle id="E2N175" type="standard_car" route="E2N" depart="82.02660458013497" departLane="random" departSpeed="10" />
<vehicle id="N2E176" type="standard_car" route="N2E" depart="82.14299681886502" departLane="random" departSpeed="10" />
<vehicle id="S2N177" type="standard_car" route="S2N" depart="83.40170619782128" departLane="random" departSpeed="10" />
<vehicle id="W2N178" type="standard_car" route="W2N" depart="83.40914828574907" departLane="random" departSpeed="10" />
<vehicle id="N2S179" type="standard_car" route="N2S" depart="83.554718828694" departLane="random" departSpeed="10" />
<vehicle id="S2E180" type="standard_car" route="S2E" depart="84.62642446184114" departLane="random" departSpeed="10" />
<vehicle id="W2S181" type="standard_car" route="W2S" depart="85.2808533961376" departLane="random" departSpeed="10" />
<vehicle id="E2W182" type="standard_car" route="E2W" depart="85.41830015639943" departLane="random" departSpeed="10" />
<vehicle id="S2N183" type="standard_car" route="S2N" depart="86.15774941423402" departLane="random" departSpeed="10" />
<vehicle id="E2W184" type="standard_car" route="E2W" depart="86.37043386992403" departLane="random" departSpeed="10" />
<vehicle id="E2S185" type="standard_car" route="E2S" depart="86.69441246076805" departLane="random" departSpeed="10" />
<vehicle id="W2E186" type="standard_car" route="W2E" depart="87.43149824109618" departLane="random" departSpeed="10" />
<vehicle id="E2W187" type="standard_car" route="E2W" depart="87.74972585767512" departLane="random" departSpeed="10" />
<vehicle id="N2S188" type="standard_car" route="N2S" depart="88.33469993409294" departLane="random" departSpeed="10" />
<vehicle id="N2S189" type="standard_car" route="N2S" depart="88.73436203895257" departLane="random" departSpeed="10" />
<vehicle id="E2W190" type="standard_car" route="E2W" depart="88.80026046398669" departLane="random" departSpeed="10" />
<vehicle id="E2W191" type="standard_car" route="E2W" depart="89.4203576545288" departLane="random" departSpeed="10" />
<vehicle id="W2S192" type="standard_car" route="W2S" depart="89.82264326630971" departLane="random" departSpeed="10" />
<vehicle id="W2S193" type="standard_car" route="W2S" depart="91.05277221449606" departLane="random" departSpeed="10" />
<vehicle id="S2N194" type="standard_car" route="S2N" depart="91.52033610602606" departLane="random" departSpeed="10" />
<vehicle id="W2E195" type="standard_car" route="W2E" depart="91.68897455457936" departLane="random" departSpeed="10" />
<vehicle id="E2W196" type="standard_car" route="E2W" depart="91.77459208795547" departLane="random" departSpeed="10" />
<vehicle id="N2S197" type="standard_car" route="N2S" depart="92.14059999614372" departLane="random" departSpeed="10" />
<vehicle id="W2E198" type="standard_car" route="W2E" depart="92.52110529909746" departLane="random" departSpeed="10" />
<vehicle id="S2E199" type="standard_car" route="S2E" depart="95.63788694849748" departLane="random" departSpeed="10" />
<vehicle id="E2W200" type="standard_car" route="E2W" depart="96.60746509515141" departLane="random" departSpeed="10" />
<vehicle id="S2N201" type="standard_car" route="S2N" depart="96.8422031895781" departLane="random" departSpeed="10" />
<vehicle id="N2S202" type="standard_car" route="N2S" depart="97.75593420864837" departLane="random" departSpeed="10" />
<vehicle id="E2W203" type="standard_car" route="E2W" depart="99.54010351823104" departLane="random" departSpeed="10" />
<vehicle id="E2W204" type="standard_car" route="E2W" depart="100.33031009495261" departLane="random" departSpeed="10" />
<vehicle id="E2W205" type="standard_car" route="E2W" depart="100.39861116536679" departLane="random" departSpeed="10" />
<vehicle id="S2N206" type="standard_car" route="S2N" depart="101.33506762087087" departLane="random" departSpeed="10" />
<vehicle id="N2E207" type="standard_car" route="N2E" depart="101.6579333360568" departLane="random" departSpeed="10" />
<vehicle id="S2N208" type="standard_car" route="S2N" depart="102.30355388000521" departLane="random" departSpeed="10" />
<vehicle id="S2N209" type="standard_car" route="S2N" depart="105.79045764761965" departLane="random" departSpeed="10" />
<vehicle id="E2W210" type="standard_car" route="E2W" depart="106.53770806317593" departLane="random" departSpeed="10" />
<vehicle id="S2N211" type="standard_car" route="S2N" depart="106.86047154013518" departLane="random" departSpeed="10" />
<vehicle id="N2S212" type="standard_car" route="N2S" depart="107.03321101556963" departLane="random" departSpeed="10" />
<vehicle id="S2E213" type="standard_car" route="S2E" depart="107.37695114935512" departLane="random" departSpeed="10" />
<vehicle id="S2N214" type="standard_car" route="S2N" depart="107.48093375993658" departLane="random" departSpeed="10" />
<vehicle id="E2S215" type="standard_car" route="E2S" depart="108.12024261805797" departLane="random" departSpeed="10" />
<vehicle id="E2S216" type="standard_car" route="E2S" depart="108.96895343174758" departLane="random" departSpeed="10" />
<vehicle id="E2W217" type="standard_car" route="E2W" depart="109.75781047307889" departLane="random" departSpeed="10" />
<vehicle id="N2S218" type="standard_car" route="N2S" depart="109.82145876171047" departLane="random" departSpeed="10" />
<vehicle id="S2W219" type="standard_car" route="S2W" depart="109.85048022922959" departLane="random" departSpeed="10" />
<vehicle id="W2E220" type="standard_car" route="W2E" depart="110.00268799526583" departLane="random" departSpeed="10" />
<vehicle id="N2S221" type="standard_car" route="N2S" depart="111.00614438961554" departLane="random" departSpeed="10" />
<vehicle id="S2N222" type="standard_car" route="S2N" depart="111.31249318761596" departLane="random" departSpeed="10" />
<vehicle id="N2S223" type="standard_car" route="N2S" depart="112.54203602536954" departLane="random" departSpeed="10" />
<vehicle id="S2N224" type="standard_car" route="S2N" depart="114.13491906247025" departLane="random" departSpeed="10" />
<vehicle id="W2E225" type="standard_car" route="W2E" depart="115.15196127091305" departLane="random" departSpeed="10" />
<vehicle id="E2W226" type="standard_car" route="E2W" depart="118.97486743514145" departLane="random" departSpeed="10" />
<vehicle id="E2W227" type="standard_car" route="E2W" depart="119.3680631768989" departLane="random" departSpeed="10" />
<vehicle id="S2W228" type="standard_car" route="S2W" depart="120.10119675865884" departLane="random" departSpeed="10" />
<vehicle id="E2N229" type="standard_car" route="E2N" depart="125.20076296130757" departLane="random" departSpeed="10" />
<vehicle id="W2E230" type="standard_car" route="W2E" depart="128.89102357620152" departLane="random" departSpeed="10" />
<vehicle id="E2S231" type="standard_car" route="E2S" depart="130.70638412599277" departLane="random" departSpeed="10" />
<vehicle id="S2E232" type="standard_car" route="S2E" depart="131.30355538538737" departLane="random" departSpeed="10" />
<vehicle id="N2S233" type="standard_car" route="N2S" depart="132.84875184279684" departLane="random" departSpeed="10" />
<vehicle id="W2E234" type="standard_car" route="W2E" depart="135.46138006190617" departLane="random" departSpeed="10" />
<vehicle id="E2W235" type="standard_car" route="E2W" depart="138.79479006497004" departLane="random" departSpeed="10" />
<vehicle id="N2S236" type="standard_car" route="N2S" depart="168.18408992928144" departLane="random" departSpeed="10" />
<vehicle id="N2S237" type="standard_car" route="N2S" depart="200.0" departLane="random" departSpeed="10" />
</routes>
