<?xml version="1.0" encoding="UTF-8"?>

            <routes xmlns:xsi="http://www.w3.org/2001/XMLSchema-instance">
   
            <vType accel="1.0" decel="4.5" id="standard_car" length="5.0" minGap="2.5" maxSpeed="25" sigma="0.5" />) 
            
            <route id="N2W" edges="-125514711 125514713"/>
            <route id="N2S" edges="-125514711 -125514709"/>
            <route id="N2E" edges="-125514711 -548975769"/>     
            <route id="W2N" edges="-125514713 125514711"/>
            <route id="W2E" edges="-125514713 -548975769"/>
            <route id="W2S" edges="-125514711 -125514709"/>
            <route id="S2W" edges="125514709 125514713"/>
            <route id="S2N" edges="125514709 125514711"/>
            <route id="S2E" edges="-125514711 -548975769"/>
            <route id="E2S" edges="548975769 -125514709"/>
            <route id="E2W" edges="548975769 125514713"/>
            <route id="E2N" edges="548975769 125514711"/>
            
<vehicle id="N2W0" type="standard_car" route="N2W" depart="14.467922100563243" departLane="random" departSpeed="10" />
<vehicle id="S2E1" type="standard_car" route="S2E" depart="16.189253887593512" departLane="random" departSpeed="10" />
<vehicle id="E2W2" type="standard_car" route="E2W" depart="21.804164036926025" departLane="random" departSpeed="10" />
<vehicle id="E2W3" type="standard_car" route="E2W" depart="22.492989042622007" departLane="random" departSpeed="10" />
<vehicle id="E2S4" type="standard_car" route="E2S" depart="23.45164690583723" departLane="random" departSpeed="10" />
<vehicle id="N2W5" type="standard_car" route="N2W" depart="25.994456283347915" departLane="random" departSpeed="10" />
<vehicle id="W2N6" type="standard_car" route="W2N" depart="27.394135357222435" departLane="random" departSpeed="10" />
<vehicle id="N2E7" type="standard_car" route="N2E" depart="30.190917427189476" departLane="random" departSpeed="10" />
<vehicle id="S2W8" type="standard_car" route="S2W" depart="32.11308901105828" departLane="random" departSpeed="10" />
<vehicle id="S2W9" type="standard_car" route="S2W" depart="35.685866564474296" departLane="random" departSpeed="10" />
<vehicle id="S2N10" type="standard_car" route="S2N" depart="37.97923637579859" departLane="random" departSpeed="10" />
<vehicle id="S2W11" type="standard_car" route="S2W" depart="42.66456881374915" departLane="random" departSpeed="10" />
<vehicle id="N2S12" type="standard_car" route="N2S" depart="42.952145177350594" departLane="random" departSpeed="10" />
<vehicle id="E2N13" type="standard_car" route="E2N" depart="43.226165343907816" departLane="random" departSpeed="10" />
<vehicle id="N2E14" type="standard_car" route="N2E" depart="43.39007914435348" departLane="random" departSpeed="10" />
<vehicle id="W2E15" type="standard_car" route="W2E" depart="45.72518351234891" departLane="random" departSpeed="10" />
<vehicle id="E2W16" type="standard_car" route="E2W" depart="46.723699831031915" departLane="random" departSpeed="10" />
<vehicle id="E2W17" type="standard_car" route="E2W" depart="48.76341980856178" departLane="random" departSpeed="10" />
<vehicle id="W2S18" type="standard_car" route="W2S" depart="50.57691477221642" departLane="random" departSpeed="10" />
<vehicle id="W2N19" type="standard_car" route="W2N" depart="52.41972964360797" departLane="random" departSpeed="10" />
<vehicle id="E2W20" type="standard_car" route="E2W" depart="53.742546980490715" departLane="random" departSpeed="10" />
<vehicle id="W2S21" type="standard_car" route="W2S" depart="57.260256406924306" departLane="random" departSpeed="10" />
<vehicle id="S2N22" type="standard_car" route="S2N" depart="57.79240335081133" departLane="random" departSpeed="10" />
<vehicle id="E2W23" type="standard_car" route="E2W" depart="63.71484919701892" departLane="random" departSpeed="10" />
<vehicle id="S2W24" type="standard_car" route="S2W" depart="64.62556575169332" departLane="random" departSpeed="10" />
<vehicle id="W2S25" type="standard_car" route="W2S" depart="68.59589382070806" departLane="random" departSpeed="10" />
<vehicle id="E2N26" type="standard_car" route="E2N" depart="71.18349883853148" departLane="random" departSpeed="10" />
<vehicle id="S2W27" type="standard_car" route="S2W" depart="71.82664423267462" departLane="random" departSpeed="10" />
<vehicle id="E2N28" type="standard_car" route="E2N" depart="72.25682499095454" departLane="random" departSpeed="10" />
<vehicle id="S2N29" type="standard_car" route="S2N" depart="73.54129696949248" departLane="random" departSpeed="10" />
<vehicle id="E2N30" type="standard_car" route="E2N" depart="74.78295045517977" departLane="random" departSpeed="10" />
<vehicle id="W2E31" type="standard_car" route="W2E" depart="74.9740193986311" departLane="random" departSpeed="10" />
<vehicle id="W2N32" type="standard_car" route="W2N" depart="76.28065054772861" departLane="random" departSpeed="10" />
<vehicle id="S2N33" type="standard_car" route="S2N" depart="77.27235200191681" departLane="random" departSpeed="10" />
<vehicle id="W2E34" type="standard_car" route="W2E" depart="77.31540008198081" departLane="random" departSpeed="10" />
<vehicle id="N2E35" type="standard_car" route="N2E" depart="77.4205894550469" departLane="random" departSpeed="10" />
<vehicle id="S2N36" type="standard_car" route="S2N" depart="78.39967979356202" departLane="random" departSpeed="10" />
<vehicle id="N2W37" type="standard_car" route="N2W" depart="79.78683883339784" departLane="random" departSpeed="10" />
<vehicle id="E2N38" type="standard_car" route="E2N" depart="80.07262737643858" departLane="random" departSpeed="10" />
<vehicle id="E2S39" type="standard_car" route="E2S" depart="80.36171495532045" departLane="random" departSpeed="10" />
<vehicle id="N2E40" type="standard_car" route="N2E" depart="81.256653839319" departLane="random" departSpeed="10" />
<vehicle id="S2N41" type="standard_car" route="S2N" depart="82.1396054655063" departLane="random" departSpeed="10" />
<vehicle id="N2W42" type="standard_car" route="N2W" depart="83.2524501368009" departLane="random" departSpeed="10" />
<vehicle id="N2E43" type="standard_car" route="N2E" depart="84.22406226047725" departLane="random" departSpeed="10" />
<vehicle id="E2S44" type="standard_car" route="E2S" depart="84.72345228789187" departLane="random" departSpeed="10" />
<vehicle id="N2S45" type="standard_car" route="N2S" depart="86.22988100047652" departLane="random" departSpeed="10" />
<vehicle id="S2N46" type="standard_car" route="S2N" depart="87.85978546071863" departLane="random" departSpeed="10" />
<vehicle id="N2S47" type="standard_car" route="N2S" depart="88.66306442311947" departLane="random" departSpeed="10" />
<vehicle id="E2W48" type="standard_car" route="E2W" depart="88.72299936172382" departLane="random" departSpeed="10" />
<vehicle id="N2S49" type="standard_car" route="N2S" depart="91.83979599013541" departLane="random" departSpeed="10" />
<vehicle id="W2N50" type="standard_car" route="W2N" depart="92.24701163547907" departLane="random" departSpeed="10" />
<vehicle id="S2N51" type="standard_car" route="S2N" depart="93.17849698359805" departLane="random" departSpeed="10" />
<vehicle id="W2S52" type="standard_car" route="W2S" depart="94.10065176980468" departLane="random" departSpeed="10" />
<vehicle id="W2E53" type="standard_car" route="W2E" depart="96.92300690247218" departLane="random" departSpeed="10" />
<vehicle id="N2W54" type="standard_car" route="N2W" depart="97.1328618787581" departLane="random" departSpeed="10" />
<vehicle id="N2W55" type="standard_car" route="N2W" depart="98.1436203558479" departLane="random" departSpeed="10" />
<vehicle id="W2E56" type="standard_car" route="W2E" depart="98.34340785342522" departLane="random" departSpeed="10" />
<vehicle id="E2S57" type="standard_car" route="E2S" depart="99.59835315457391" departLane="random" departSpeed="10" />
<vehicle id="E2W58" type="standard_car" route="E2W" depart="99.67461622224045" departLane="random" departSpeed="10" />
<vehicle id="E2S59" type="standard_car" route="E2S" depart="100.92247719247993" departLane="random" departSpeed="10" />
<vehicle id="E2N60" type="standard_car" route="E2N" depart="101.81190436358739" departLane="random" departSpeed="10" />
<vehicle id="S2N61" type="standard_car" route="S2N" depart="102.53768861669" departLane="random" departSpeed="10" />
<vehicle id="S2N62" type="standard_car" route="S2N" depart="102.64725757010889" departLane="random" departSpeed="10" />
<vehicle id="W2N63" type="standard_car" route="W2N" depart="102.84823816344316" departLane="random" departSpeed="10" />
<vehicle id="E2S64" type="standard_car" route="E2S" depart="104.46699465827486" departLane="random" departSpeed="10" />
<vehicle id="N2E65" type="standard_car" route="N2E" depart="106.63393907078239" departLane="random" departSpeed="10" />
<vehicle id="W2S66" type="standard_car" route="W2S" depart="107.22464661717913" departLane="random" departSpeed="10" />
<vehicle id="N2S67" type="standard_car" route="N2S" depart="108.2934362647972" departLane="random" departSpeed="10" />
<vehicle id="W2E68" type="standard_car" route="W2E" depart="110.64287652378643" departLane="random" departSpeed="10" />
<vehicle id="E2S69" type="standard_car" route="E2S" depart="111.56535403146508" departLane="random" departSpeed="10" />
<vehicle id="W2S70" type="standard_car" route="W2S" depart="112.22489364740437" departLane="random" departSpeed="10" />
<vehicle id="S2N71" type="standard_car" route="S2N" depart="112.74151953927549" departLane="random" departSpeed="10" />
<vehicle id="W2S72" type="standard_car" route="W2S" depart="113.11022547634694" departLane="random" departSpeed="10" />
<vehicle id="W2S73" type="standard_car" route="W2S" depart="114.42540656466404" departLane="random" departSpeed="10" />
<vehicle id="N2S74" type="standard_car" route="N2S" depart="114.72044351132324" departLane="random" departSpeed="10" />
<vehicle id="E2W75" type="standard_car" route="E2W" depart="114.99658860701727" departLane="random" departSpeed="10" />
<vehicle id="W2S76" type="standard_car" route="W2S" depart="117.30342565688909" departLane="random" departSpeed="10" />
<vehicle id="W2E77" type="standard_car" route="W2E" depart="117.6617991522303" departLane="random" departSpeed="10" />
<vehicle id="S2N78" type="standard_car" route="S2N" depart="118.10617737102615" departLane="random" departSpeed="10" />
<vehicle id="S2N79" type="standard_car" route="S2N" depart="118.64696658130674" departLane="random" departSpeed="10" />
<vehicle id="W2N80" type="standard_car" route="W2N" depart="119.29592931698981" departLane="random" departSpeed="10" />
<vehicle id="W2N81" type="standard_car" route="W2N" depart="122.17502847528272" departLane="random" departSpeed="10" />
<vehicle id="W2E82" type="standard_car" route="W2E" depart="122.28333959865101" departLane="random" departSpeed="10" />
<vehicle id="S2N83" type="standard_car" route="S2N" depart="125.08544717103823" departLane="random" departSpeed="10" />
<vehicle id="N2W84" type="standard_car" route="N2W" depart="126.589784280263" departLane="random" departSpeed="10" />
<vehicle id="N2S85" type="standard_car" route="N2S" depart="127.03873850400208" departLane="random" departSpeed="10" />
<vehicle id="W2N86" type="standard_car" route="W2N" depart="127.08962877850016" departLane="random" departSpeed="10" />
<vehicle id="E2S87" type="standard_car" route="E2S" depart="127.36877485353357" departLane="random" departSpeed="10" />
<vehicle id="E2N88" type="standard_car" route="E2N" depart="127.64002634419684" departLane="random" departSpeed="10" />
<vehicle id="N2W89" type="standard_car" route="N2W" depart="127.69385944742831" departLane="random" departSpeed="10" />
<vehicle id="W2E90" type="standard_car" route="W2E" depart="128.89867353493872" departLane="random" departSpeed="10" />
<vehicle id="E2W91" type="standard_car" route="E2W" depart="129.0751393885441" departLane="random" departSpeed="10" />
<vehicle id="S2N92" type="standard_car" route="S2N" depart="129.79206204974892" departLane="random" departSpeed="10" />
<vehicle id="S2N93" type="standard_car" route="S2N" depart="132.02481064408104" departLane="random" departSpeed="10" />
<vehicle id="W2E94" type="standard_car" route="W2E" depart="132.19281279610598" departLane="random" departSpeed="10" />
<vehicle id="E2W95" type="standard_car" route="E2W" depart="132.2090890888419" departLane="random" departSpeed="10" />
<vehicle id="E2W96" type="standard_car" route="E2W" depart="133.15591159994997" departLane="random" departSpeed="10" />
<vehicle id="S2W97" type="standard_car" route="S2W" depart="133.94458186497442" departLane="random" departSpeed="10" />
<vehicle id="E2W98" type="standard_car" route="E2W" depart="134.26363530964892" departLane="random" departSpeed="10" />
<vehicle id="W2S99" type="standard_car" route="W2S" depart="134.40792053174852" departLane="random" departSpeed="10" />
<vehicle id="S2E100" type="standard_car" route="S2E" depart="134.49334177453892" departLane="random" departSpeed="10" />
<vehicle id="W2E101" type="standard_car" route="W2E" depart="136.9255875806555" departLane="random" departSpeed="10" />
<vehicle id="E2W102" type="standard_car" route="E2W" depart="137.6979446489895" departLane="random" departSpeed="10" />
<vehicle id="W2E103" type="standard_car" route="W2E" depart="138.57625775610614" departLane="random" departSpeed="10" />
<vehicle id="S2E104" type="standard_car" route="S2E" depart="138.67587882857563" departLane="random" departSpeed="10" />
<vehicle id="N2W105" type="standard_car" route="N2W" depart="139.5740920230043" departLane="random" departSpeed="10" />
<vehicle id="N2W106" type="standard_car" route="N2W" depart="140.56216816123018" departLane="random" departSpeed="10" />
<vehicle id="N2E107" type="standard_car" route="N2E" depart="142.48796943668847" departLane="random" departSpeed="10" />
<vehicle id="E2W108" type="standard_car" route="E2W" depart="142.95123599804856" departLane="random" departSpeed="10" />
<vehicle id="S2N109" type="standard_car" route="S2N" depart="144.26307129783342" departLane="random" departSpeed="10" />
<vehicle id="N2S110" type="standard_car" route="N2S" depart="145.106793036512" departLane="random" departSpeed="10" />
<vehicle id="S2W111" type="standard_car" route="S2W" depart="145.11004961540579" departLane="random" departSpeed="10" />
<vehicle id="S2N112" type="standard_car" route="S2N" depart="148.8013525514057" departLane="random" departSpeed="10" />
<vehicle id="S2W113" type="standard_car" route="S2W" depart="150.7954407119209" departLane="random" departSpeed="10" />
<vehicle id="E2W114" type="standard_car" route="E2W" depart="151.44472192829824" departLane="random" departSpeed="10" />
<vehicle id="W2E115" type="standard_car" route="W2E" depart="152.33156640116098" departLane="random" departSpeed="10" />
<vehicle id="W2S116" type="standard_car" route="W2S" depart="153.2306336785282" departLane="random" departSpeed="10" />
<vehicle id="S2W117" type="standard_car" route="S2W" depart="154.76623534553593" departLane="random" departSpeed="10" />
<vehicle id="N2S118" type="standard_car" route="N2S" depart="160.1724632734945" departLane="random" departSpeed="10" />
<vehicle id="E2S119" type="standard_car" route="E2S" depart="161.55349960843714" departLane="random" departSpeed="10" />
<vehicle id="S2W120" type="standard_car" route="S2W" depart="162.20524432287212" departLane="random" departSpeed="10" />
<vehicle id="N2S121" type="standard_car" route="N2S" depart="164.65259214483999" departLane="random" departSpeed="10" />
<vehicle id="N2W122" type="standard_car" route="N2W" depart="165.65199388236817" departLane="random" departSpeed="10" />
<vehicle id="E2S123" type="standard_car" route="E2S" depart="167.26891016466462" departLane="random" departSpeed="10" />
<vehicle id="S2W124" type="standard_car" route="S2W" depart="167.44969098429837" departLane="random" departSpeed="10" />
<vehicle id="N2S125" type="standard_car" route="N2S" depart="168.00899635579816" departLane="random" departSpeed="10" />
<vehicle id="W2E126" type="standard_car" route="W2E" depart="168.84612394078243" departLane="random" departSpeed="10" />
<vehicle id="E2W127" type="standard_car" route="E2W" depart="176.42945523469336" departLane="random" departSpeed="10" />
<vehicle id="N2S128" type="standard_car" route="N2S" depart="179.46765066261784" departLane="random" departSpeed="10" />
<vehicle id="E2W129" type="standard_car" route="E2W" depart="183.73369356667337" departLane="random" departSpeed="10" />
<vehicle id="N2E130" type="standard_car" route="N2E" depart="184.45776849178623" departLane="random" departSpeed="10" />
<vehicle id="W2S131" type="standard_car" route="W2S" depart="185.7072607373146" departLane="random" departSpeed="10" />
<vehicle id="E2W132" type="standard_car" route="E2W" depart="188.73177818457276" departLane="random" departSpeed="10" />
<vehicle id="E2S133" type="standard_car" route="E2S" depart="194.09158850904257" departLane="random" departSpeed="10" />
<vehicle id="N2S134" type="standard_car" route="N2S" depart="195.68488701088657" departLane="random" departSpeed="10" />
<vehicle id="N2W135" type="standard_car" route="N2W" depart="205.5992259711351" departLane="random" departSpeed="10" />
<vehicle id="N2E136" type="standard_car" route="N2E" depart="208.000783230774" departLane="random" departSpeed="10" />
<vehicle id="N2W137" type="standard_car" route="N2W" depart="213.1527490516173" departLane="random" departSpeed="10" />
<vehicle id="W2E138" type="standard_car" route="W2E" depart="222.332828687479" departLane="random" departSpeed="10" />
<vehicle id="N2S139" type="standard_car" route="N2S" depart="224.43766622629963" departLane="random" departSpeed="10" />
<vehicle id="W2N140" type="standard_car" route="W2N" depart="228.42399312298244" departLane="random" departSpeed="10" />
<vehicle id="N2S141" type="standard_car" route="N2S" depart="234.45563199902156" departLane="random" departSpeed="10" />
<vehicle id="N2S142" type="standard_car" route="N2S" depart="236.49599235829498" departLane="random" departSpeed="10" />
<vehicle id="N2E143" type="standard_car" route="N2E" depart="244.9657553585443" departLane="random" departSpeed="10" />
<vehicle id="W2S144" type="standard_car" route="W2S" depart="247.72574859377931" departLane="random" departSpeed="10" />
<vehicle id="N2E145" type="standard_car" route="N2E" depart="251.2205315220433" departLane="random" departSpeed="10" />
<vehicle id="W2E146" type="standard_car" route="W2E" depart="253.3552194952387" departLane="random" departSpeed="10" />
<vehicle id="N2E147" type="standard_car" route="N2E" depart="256.8874372276139" departLane="random" departSpeed="10" />
<vehicle id="W2N148" type="standard_car" route="W2N" depart="260.42490402127254" departLane="random" departSpeed="10" />
<vehicle id="W2N149" type="standard_car" route="W2N" depart="282.65662491266977" departLane="random" departSpeed="10" />
<vehicle id="E2N150" type="standard_car" route="E2N" depart="283.3112708417142" departLane="random" departSpeed="10" />
<vehicle id="S2N151" type="standard_car" route="S2N" depart="300.0" departLane="random" departSpeed="10" />
</routes>
