<?xml version="1.0" encoding="UTF-8"?>

            <routes xmlns:xsi="http://www.w3.org/2001/XMLSchema-instance">
   
            <vType accel="1.0" decel="4.5" id="standard_car" length="5.0" minGap="2.5" maxSpeed="25" sigma="0.5" />) 
            
            <route id="N2W" edges="-125514711 125514713"/>
            <route id="N2S" edges="-125514711 -125514709"/>
            <route id="N2E" edges="-125514711 -548975769"/>     
            <route id="W2N" edges="-125514713 125514711"/>
            <route id="W2E" edges="-125514713 -548975769"/>
            <route id="W2S" edges="-125514711 -125514709"/>
            <route id="S2W" edges="125514709 125514713"/>
            <route id="S2N" edges="125514709 125514711"/>
            <route id="S2E" edges="-125514711 -548975769"/>
            <route id="E2S" edges="548975769 -125514709"/>
            <route id="E2W" edges="548975769 125514713"/>
            <route id="E2N" edges="548975769 125514711"/>
            
<vehicle id="W2S0" type="standard_car" route="W2S" depart="1.138560800016882" departLane="random" departSpeed="10" />
<vehicle id="N2S1" type="standard_car" route="N2S" depart="12.19153117053579" departLane="random" departSpeed="10" />
<vehicle id="N2W2" type="standard_car" route="N2W" depart="12.807645171527758" departLane="random" departSpeed="10" />
<vehicle id="W2S3" type="standard_car" route="W2S" depart="23.365863290142727" departLane="random" departSpeed="10" />
<vehicle id="E2N4" type="standard_car" route="E2N" depart="25.25797812564933" departLane="random" departSpeed="10" />
<vehicle id="W2N5" type="standard_car" route="W2N" depart="26.77937090596476" departLane="random" departSpeed="10" />
<vehicle id="S2W6" type="standard_car" route="S2W" depart="29.88446666914896" departLane="random" departSpeed="10" />
<vehicle id="E2S7" type="standard_car" route="E2S" depart="30.82770527576617" departLane="random" departSpeed="10" />
<vehicle id="S2W8" type="standard_car" route="S2W" depart="32.00817880524321" departLane="random" departSpeed="10" />
<vehicle id="S2W9" type="standard_car" route="S2W" depart="33.131688919635465" departLane="random" departSpeed="10" />
<vehicle id="S2E10" type="standard_car" route="S2E" depart="33.18194169621971" departLane="random" departSpeed="10" />
<vehicle id="S2E11" type="standard_car" route="S2E" depart="34.0363077488571" departLane="random" departSpeed="10" />
<vehicle id="W2E12" type="standard_car" route="W2E" depart="36.00490342008742" departLane="random" departSpeed="10" />
<vehicle id="E2W13" type="standard_car" route="E2W" depart="36.926255177964194" departLane="random" departSpeed="10" />
<vehicle id="E2S14" type="standard_car" route="E2S" depart="37.39327954942755" departLane="random" departSpeed="10" />
<vehicle id="W2E15" type="standard_car" route="W2E" depart="38.07769646763239" departLane="random" departSpeed="10" />
<vehicle id="E2N16" type="standard_car" route="E2N" depart="38.613042543338565" departLane="random" departSpeed="10" />
<vehicle id="E2S17" type="standard_car" route="E2S" depart="44.145385822148455" departLane="random" departSpeed="10" />
<vehicle id="E2N18" type="standard_car" route="E2N" depart="45.745423632087416" departLane="random" departSpeed="10" />
<vehicle id="N2E19" type="standard_car" route="N2E" depart="46.321648513815134" departLane="random" departSpeed="10" />
<vehicle id="N2E20" type="standard_car" route="N2E" depart="46.690592126521985" departLane="random" departSpeed="10" />
<vehicle id="N2S21" type="standard_car" route="N2S" depart="48.012428366239824" departLane="random" departSpeed="10" />
<vehicle id="N2S22" type="standard_car" route="N2S" depart="48.78933523580138" departLane="random" departSpeed="10" />
<vehicle id="W2S23" type="standard_car" route="W2S" depart="49.040873833766355" departLane="random" departSpeed="10" />
<vehicle id="S2E24" type="standard_car" route="S2E" depart="49.09305813658264" departLane="random" departSpeed="10" />
<vehicle id="N2S25" type="standard_car" route="N2S" depart="53.16642835593859" departLane="random" departSpeed="10" />
<vehicle id="E2W26" type="standard_car" route="E2W" depart="53.544722856476135" departLane="random" departSpeed="10" />
<vehicle id="N2S27" type="standard_car" route="N2S" depart="54.92976175790351" departLane="random" departSpeed="10" />
<vehicle id="E2S28" type="standard_car" route="E2S" depart="55.13907568731273" departLane="random" departSpeed="10" />
<vehicle id="W2S29" type="standard_car" route="W2S" depart="55.22501502439456" departLane="random" departSpeed="10" />
<vehicle id="S2N30" type="standard_car" route="S2N" depart="58.089496273289484" departLane="random" departSpeed="10" />
<vehicle id="W2E31" type="standard_car" route="W2E" depart="61.3889081571491" departLane="random" departSpeed="10" />
<vehicle id="E2W32" type="standard_car" route="E2W" depart="62.27201233277504" departLane="random" departSpeed="10" />
<vehicle id="W2E33" type="standard_car" route="W2E" depart="64.93426771598652" departLane="random" departSpeed="10" />
<vehicle id="E2W34" type="standard_car" route="E2W" depart="68.10697648715453" departLane="random" departSpeed="10" />
<vehicle id="E2N35" type="standard_car" route="E2N" depart="68.89983950072016" departLane="random" departSpeed="10" />
<vehicle id="W2E36" type="standard_car" route="W2E" depart="69.2933486869926" departLane="random" departSpeed="10" />
<vehicle id="N2S37" type="standard_car" route="N2S" depart="72.6008187302926" departLane="random" departSpeed="10" />
<vehicle id="E2W38" type="standard_car" route="E2W" depart="72.63961715055629" departLane="random" departSpeed="10" />
<vehicle id="W2E39" type="standard_car" route="W2E" depart="74.63887755424994" departLane="random" departSpeed="10" />
<vehicle id="S2W40" type="standard_car" route="S2W" depart="75.19378086224293" departLane="random" departSpeed="10" />
<vehicle id="N2S41" type="standard_car" route="N2S" depart="76.38431677345129" departLane="random" departSpeed="10" />
<vehicle id="N2S42" type="standard_car" route="N2S" depart="77.80156812987997" departLane="random" departSpeed="10" />
<vehicle id="E2W43" type="standard_car" route="E2W" depart="78.15302133454284" departLane="random" departSpeed="10" />
<vehicle id="E2W44" type="standard_car" route="E2W" depart="79.55693702178512" departLane="random" departSpeed="10" />
<vehicle id="S2E45" type="standard_car" route="S2E" depart="80.80564929969772" departLane="random" departSpeed="10" />
<vehicle id="S2E46" type="standard_car" route="S2E" depart="81.44775937315248" departLane="random" departSpeed="10" />
<vehicle id="E2S47" type="standard_car" route="E2S" depart="81.90570502514387" departLane="random" departSpeed="10" />
<vehicle id="S2W48" type="standard_car" route="S2W" depart="85.12638268170227" departLane="random" departSpeed="10" />
<vehicle id="N2S49" type="standard_car" route="N2S" depart="85.8846272784714" departLane="random" departSpeed="10" />
<vehicle id="S2N50" type="standard_car" route="S2N" depart="86.52256325257873" departLane="random" departSpeed="10" />
<vehicle id="S2E51" type="standard_car" route="S2E" depart="88.03727215002992" departLane="random" departSpeed="10" />
<vehicle id="S2E52" type="standard_car" route="S2E" depart="89.09873626571154" departLane="random" departSpeed="10" />
<vehicle id="S2N53" type="standard_car" route="S2N" depart="89.37995824066759" departLane="random" departSpeed="10" />
<vehicle id="E2S54" type="standard_car" route="E2S" depart="91.216153230483" departLane="random" departSpeed="10" />
<vehicle id="N2S55" type="standard_car" route="N2S" depart="92.3010286105576" departLane="random" departSpeed="10" />
<vehicle id="S2W56" type="standard_car" route="S2W" depart="92.50791741495713" departLane="random" departSpeed="10" />
<vehicle id="W2E57" type="standard_car" route="W2E" depart="93.20459887827846" departLane="random" departSpeed="10" />
<vehicle id="W2N58" type="standard_car" route="W2N" depart="93.91760477606707" departLane="random" departSpeed="10" />
<vehicle id="N2S59" type="standard_car" route="N2S" depart="94.43403059800325" departLane="random" departSpeed="10" />
<vehicle id="E2W60" type="standard_car" route="E2W" depart="94.91047983598035" departLane="random" departSpeed="10" />
<vehicle id="E2W61" type="standard_car" route="E2W" depart="95.05436015911373" departLane="random" departSpeed="10" />
<vehicle id="E2S62" type="standard_car" route="E2S" depart="95.52739584266298" departLane="random" departSpeed="10" />
<vehicle id="S2N63" type="standard_car" route="S2N" depart="97.25682800148317" departLane="random" departSpeed="10" />
<vehicle id="E2N64" type="standard_car" route="E2N" depart="97.52837318520383" departLane="random" departSpeed="10" />
<vehicle id="W2S65" type="standard_car" route="W2S" depart="97.62234201812487" departLane="random" departSpeed="10" />
<vehicle id="S2N66" type="standard_car" route="S2N" depart="98.5419865711649" departLane="random" departSpeed="10" />
<vehicle id="S2W67" type="standard_car" route="S2W" depart="99.6876085342792" departLane="random" departSpeed="10" />
<vehicle id="W2N68" type="standard_car" route="W2N" depart="99.73135226912426" departLane="random" departSpeed="10" />
<vehicle id="N2S69" type="standard_car" route="N2S" depart="101.41949806290667" departLane="random" departSpeed="10" />
<vehicle id="E2N70" type="standard_car" route="E2N" depart="102.73313422161456" departLane="random" departSpeed="10" />
<vehicle id="E2W71" type="standard_car" route="E2W" depart="102.93226137916947" departLane="random" departSpeed="10" />
<vehicle id="N2W72" type="standard_car" route="N2W" depart="103.2201772543187" departLane="random" departSpeed="10" />
<vehicle id="N2E73" type="standard_car" route="N2E" depart="103.48409391067226" departLane="random" departSpeed="10" />
<vehicle id="N2W74" type="standard_car" route="N2W" depart="103.98327329111665" departLane="random" departSpeed="10" />
<vehicle id="W2S75" type="standard_car" route="W2S" depart="104.83387968411962" departLane="random" departSpeed="10" />
<vehicle id="W2S76" type="standard_car" route="W2S" depart="104.97482325245821" departLane="random" departSpeed="10" />
<vehicle id="S2W77" type="standard_car" route="S2W" depart="105.96044431016661" departLane="random" departSpeed="10" />
<vehicle id="E2W78" type="standard_car" route="E2W" depart="106.52601643012783" departLane="random" departSpeed="10" />
<vehicle id="S2W79" type="standard_car" route="S2W" depart="106.57052528894604" departLane="random" departSpeed="10" />
<vehicle id="E2W80" type="standard_car" route="E2W" depart="107.24045223052842" departLane="random" departSpeed="10" />
<vehicle id="S2N81" type="standard_car" route="S2N" depart="107.41184009461568" departLane="random" departSpeed="10" />
<vehicle id="N2S82" type="standard_car" route="N2S" depart="108.25659577421013" departLane="random" departSpeed="10" />
<vehicle id="W2S83" type="standard_car" route="W2S" depart="109.38013980132924" departLane="random" departSpeed="10" />
<vehicle id="E2W84" type="standard_car" route="E2W" depart="109.91161764682347" departLane="random" departSpeed="10" />
<vehicle id="N2S85" type="standard_car" route="N2S" depart="110.17714679774002" departLane="random" departSpeed="10" />
<vehicle id="S2N86" type="standard_car" route="S2N" depart="110.31322772207099" departLane="random" departSpeed="10" />
<vehicle id="N2W87" type="standard_car" route="N2W" depart="110.58239945271939" departLane="random" departSpeed="10" />
<vehicle id="N2S88" type="standard_car" route="N2S" depart="110.63269222168522" departLane="random" departSpeed="10" />
<vehicle id="W2E89" type="standard_car" route="W2E" depart="111.33771338486324" departLane="random" departSpeed="10" />
<vehicle id="S2W90" type="standard_car" route="S2W" depart="112.05258820412762" departLane="random" departSpeed="10" />
<vehicle id="W2E91" type="standard_car" route="W2E" depart="113.71273822522421" departLane="random" departSpeed="10" />
<vehicle id="E2W92" type="standard_car" route="E2W" depart="113.84825957279357" departLane="random" departSpeed="10" />
<vehicle id="W2S93" type="standard_car" route="W2S" depart="116.21357058370008" departLane="random" departSpeed="10" />
<vehicle id="N2S94" type="standard_car" route="N2S" depart="116.60566048969235" departLane="random" departSpeed="10" />
<vehicle id="N2S95" type="standard_car" route="N2S" depart="117.17013022840904" departLane="random" departSpeed="10" />
<vehicle id="N2S96" type="standard_car" route="N2S" depart="117.68732003540921" departLane="random" departSpeed="10" />
<vehicle id="W2E97" type="standard_car" route="W2E" depart="120.2441585576292" departLane="random" departSpeed="10" />
<vehicle id="W2E98" type="standard_car" route="W2E" depart="120.79852359606849" departLane="random" departSpeed="10" />
<vehicle id="E2W99" type="standard_car" route="E2W" depart="122.36553835500595" departLane="random" departSpeed="10" />
<vehicle id="N2W100" type="standard_car" route="N2W" depart="124.6811275619837" departLane="random" departSpeed="10" />
<vehicle id="S2W101" type="standard_car" route="S2W" depart="128.37492797912225" departLane="random" departSpeed="10" />
<vehicle id="S2N102" type="standard_car" route="S2N" depart="128.77114535297522" departLane="random" departSpeed="10" />
<vehicle id="N2E103" type="standard_car" route="N2E" depart="129.4822409943382" departLane="random" departSpeed="10" />
<vehicle id="N2E104" type="standard_car" route="N2E" depart="130.31148035361477" departLane="random" departSpeed="10" />
<vehicle id="N2E105" type="standard_car" route="N2E" depart="131.96503329626532" departLane="random" departSpeed="10" />
<vehicle id="W2E106" type="standard_car" route="W2E" depart="132.1608564931796" departLane="random" departSpeed="10" />
<vehicle id="W2E107" type="standard_car" route="W2E" depart="132.20242869180225" departLane="random" departSpeed="10" />
<vehicle id="E2W108" type="standard_car" route="E2W" depart="133.71520236671162" departLane="random" departSpeed="10" />
<vehicle id="S2N109" type="standard_car" route="S2N" depart="134.26939679348007" departLane="random" departSpeed="10" />
<vehicle id="N2S110" type="standard_car" route="N2S" depart="134.43869482659844" departLane="random" departSpeed="10" />
<vehicle id="W2E111" type="standard_car" route="W2E" depart="134.74313799481246" departLane="random" departSpeed="10" />
<vehicle id="E2N112" type="standard_car" route="E2N" depart="134.94231140428275" departLane="random" departSpeed="10" />
<vehicle id="S2N113" type="standard_car" route="S2N" depart="137.61023869246094" departLane="random" departSpeed="10" />
<vehicle id="W2N114" type="standard_car" route="W2N" depart="138.64099041468205" departLane="random" departSpeed="10" />
<vehicle id="N2E115" type="standard_car" route="N2E" depart="140.643201093387" departLane="random" departSpeed="10" />
<vehicle id="S2N116" type="standard_car" route="S2N" depart="141.27397212614758" departLane="random" departSpeed="10" />
<vehicle id="S2N117" type="standard_car" route="S2N" depart="142.12443074569518" departLane="random" departSpeed="10" />
<vehicle id="W2N118" type="standard_car" route="W2N" depart="142.85105213489652" departLane="random" departSpeed="10" />
<vehicle id="E2N119" type="standard_car" route="E2N" depart="144.47948986551168" departLane="random" departSpeed="10" />
<vehicle id="S2E120" type="standard_car" route="S2E" depart="145.69267330979469" departLane="random" departSpeed="10" />
<vehicle id="E2W121" type="standard_car" route="E2W" depart="148.9211053213738" departLane="random" departSpeed="10" />
<vehicle id="W2E122" type="standard_car" route="W2E" depart="150.97321086328327" departLane="random" departSpeed="10" />
<vehicle id="W2E123" type="standard_car" route="W2E" depart="155.74123315529903" departLane="random" departSpeed="10" />
<vehicle id="S2N124" type="standard_car" route="S2N" depart="158.132857283778" departLane="random" departSpeed="10" />
<vehicle id="S2N125" type="standard_car" route="S2N" depart="159.16463644227088" departLane="random" departSpeed="10" />
<vehicle id="S2N126" type="standard_car" route="S2N" depart="161.93668448872484" departLane="random" departSpeed="10" />
<vehicle id="S2N127" type="standard_car" route="S2N" depart="164.33376701554263" departLane="random" departSpeed="10" />
<vehicle id="S2W128" type="standard_car" route="S2W" depart="165.1429286870981" departLane="random" departSpeed="10" />
<vehicle id="W2E129" type="standard_car" route="W2E" depart="169.90368238078435" departLane="random" departSpeed="10" />
<vehicle id="E2W130" type="standard_car" route="E2W" depart="175.19659350993385" departLane="random" departSpeed="10" />
<vehicle id="N2E131" type="standard_car" route="N2E" depart="178.74957039780784" departLane="random" departSpeed="10" />
<vehicle id="E2S132" type="standard_car" route="E2S" depart="183.84182680515067" departLane="random" departSpeed="10" />
<vehicle id="E2W133" type="standard_car" route="E2W" depart="184.74217210287853" departLane="random" departSpeed="10" />
<vehicle id="E2N134" type="standard_car" route="E2N" depart="189.11615713417436" departLane="random" departSpeed="10" />
<vehicle id="E2W135" type="standard_car" route="E2W" depart="194.7378049514037" departLane="random" departSpeed="10" />
<vehicle id="N2S136" type="standard_car" route="N2S" depart="198.79161282139194" departLane="random" departSpeed="10" />
<vehicle id="E2W137" type="standard_car" route="E2W" depart="200.57507346529601" departLane="random" departSpeed="10" />
<vehicle id="N2S138" type="standard_car" route="N2S" depart="202.49655942667283" departLane="random" departSpeed="10" />
<vehicle id="W2E139" type="standard_car" route="W2E" depart="203.99078344958653" departLane="random" departSpeed="10" />
<vehicle id="W2E140" type="standard_car" route="W2E" depart="221.16796748644256" departLane="random" departSpeed="10" />
<vehicle id="S2W141" type="standard_car" route="S2W" depart="224.59791526902467" departLane="random" departSpeed="10" />
<vehicle id="E2S142" type="standard_car" route="E2S" depart="241.60946304429743" departLane="random" departSpeed="10" />
<vehicle id="E2W143" type="standard_car" route="E2W" depart="247.4036416310895" departLane="random" departSpeed="10" />
<vehicle id="S2W144" type="standard_car" route="S2W" depart="257.480854402227" departLane="random" departSpeed="10" />
<vehicle id="S2E145" type="standard_car" route="S2E" depart="276.9755370350261" departLane="random" departSpeed="10" />
<vehicle id="S2N146" type="standard_car" route="S2N" depart="297.7179148211249" departLane="random" departSpeed="10" />
<vehicle id="E2S147" type="standard_car" route="E2S" depart="300.0" departLane="random" departSpeed="10" />
</routes>
