<?xml version="1.0" encoding="UTF-8"?>

            <routes xmlns:xsi="http://www.w3.org/2001/XMLSchema-instance">
   
            <vType accel="1.0" decel="4.5" id="standard_car" length="5.0" minGap="2.5" maxSpeed="25" sigma="0.5" />) 
            
            <route id="N2W" edges="-125514711 125514713"/>
            <route id="N2S" edges="-125514711 -125514709"/>
            <route id="N2E" edges="-125514711 -548975769"/>     
            <route id="W2N" edges="-125514713 125514711"/>
            <route id="W2E" edges="-125514713 -548975769"/>
            <route id="W2S" edges="-125514711 -125514709"/>
            <route id="S2W" edges="125514709 125514713"/>
            <route id="S2N" edges="125514709 125514711"/>
            <route id="S2E" edges="-125514711 -548975769"/>
            <route id="E2S" edges="548975769 -125514709"/>
            <route id="E2W" edges="548975769 125514713"/>
            <route id="E2N" edges="548975769 125514711"/>
            
<vehicle id="N2W0" type="standard_car" route="N2W" depart="3.3437463561663576" departLane="random" departSpeed="10" />
<vehicle id="W2E1" type="standard_car" route="W2E" depart="8.205919150439044" departLane="random" departSpeed="10" />
<vehicle id="N2E2" type="standard_car" route="N2E" depart="20.1919881539033" departLane="random" departSpeed="10" />
<vehicle id="S2N3" type="standard_car" route="S2N" depart="21.450006743925705" departLane="random" departSpeed="10" />
<vehicle id="W2E4" type="standard_car" route="W2E" depart="21.863612083570708" departLane="random" departSpeed="10" />
<vehicle id="W2N5" type="standard_car" route="W2N" depart="24.318691794644025" departLane="random" departSpeed="10" />
<vehicle id="E2S6" type="standard_car" route="E2S" depart="27.551974306309898" departLane="random" departSpeed="10" />
<vehicle id="S2N7" type="standard_car" route="S2N" depart="29.171788748207476" departLane="random" departSpeed="10" />
<vehicle id="W2E8" type="standard_car" route="W2E" depart="32.682289962024015" departLane="random" departSpeed="10" />
<vehicle id="W2E9" type="standard_car" route="W2E" depart="34.596130334247" departLane="random" departSpeed="10" />
<vehicle id="W2E10" type="standard_car" route="W2E" depart="38.3525611916284" departLane="random" departSpeed="10" />
<vehicle id="N2S11" type="standard_car" route="N2S" depart="40.416436115842735" departLane="random" departSpeed="10" />
<vehicle id="S2N12" type="standard_car" route="S2N" depart="43.7968593610068" departLane="random" departSpeed="10" />
<vehicle id="E2W13" type="standard_car" route="E2W" depart="44.40304261988487" departLane="random" departSpeed="10" />
<vehicle id="N2S14" type="standard_car" route="N2S" depart="44.64363086780105" departLane="random" departSpeed="10" />
<vehicle id="S2E15" type="standard_car" route="S2E" depart="45.38812579284937" departLane="random" departSpeed="10" />
<vehicle id="S2E16" type="standard_car" route="S2E" depart="45.620168777954376" departLane="random" departSpeed="10" />
<vehicle id="W2N17" type="standard_car" route="W2N" depart="47.80732478520707" departLane="random" departSpeed="10" />
<vehicle id="E2N18" type="standard_car" route="E2N" depart="49.03850012586415" departLane="random" departSpeed="10" />
<vehicle id="E2W19" type="standard_car" route="E2W" depart="49.4652313432536" departLane="random" departSpeed="10" />
<vehicle id="N2W20" type="standard_car" route="N2W" depart="51.662413381377256" departLane="random" departSpeed="10" />
<vehicle id="N2W21" type="standard_car" route="N2W" depart="53.9789217637925" departLane="random" departSpeed="10" />
<vehicle id="E2W22" type="standard_car" route="E2W" depart="54.09700801606313" departLane="random" departSpeed="10" />
<vehicle id="S2N23" type="standard_car" route="S2N" depart="54.25489722471251" departLane="random" departSpeed="10" />
<vehicle id="W2S24" type="standard_car" route="W2S" depart="54.84164558190963" departLane="random" departSpeed="10" />
<vehicle id="W2S25" type="standard_car" route="W2S" depart="59.84147295573449" departLane="random" departSpeed="10" />
<vehicle id="E2N26" type="standard_car" route="E2N" depart="64.2513257625209" departLane="random" departSpeed="10" />
<vehicle id="E2W27" type="standard_car" route="E2W" depart="67.01984395031062" departLane="random" departSpeed="10" />
<vehicle id="S2N28" type="standard_car" route="S2N" depart="69.91189528676685" departLane="random" departSpeed="10" />
<vehicle id="N2S29" type="standard_car" route="N2S" depart="71.44201032600841" departLane="random" departSpeed="10" />
<vehicle id="W2S30" type="standard_car" route="W2S" depart="73.79706876966452" departLane="random" departSpeed="10" />
<vehicle id="N2E31" type="standard_car" route="N2E" depart="74.31215826386507" departLane="random" departSpeed="10" />
<vehicle id="W2E32" type="standard_car" route="W2E" depart="74.69738083058087" departLane="random" departSpeed="10" />
<vehicle id="N2E33" type="standard_car" route="N2E" depart="74.89316537874149" departLane="random" departSpeed="10" />
<vehicle id="S2E34" type="standard_car" route="S2E" depart="75.18391953281129" departLane="random" departSpeed="10" />
<vehicle id="W2E35" type="standard_car" route="W2E" depart="75.28592702471741" departLane="random" departSpeed="10" />
<vehicle id="S2E36" type="standard_car" route="S2E" depart="76.01442536418594" departLane="random" departSpeed="10" />
<vehicle id="W2S37" type="standard_car" route="W2S" depart="79.06531597500138" departLane="random" departSpeed="10" />
<vehicle id="E2W38" type="standard_car" route="E2W" depart="81.60595100553009" departLane="random" departSpeed="10" />
<vehicle id="W2N39" type="standard_car" route="W2N" depart="82.49062010111192" departLane="random" departSpeed="10" />
<vehicle id="N2W40" type="standard_car" route="N2W" depart="82.82651362348979" departLane="random" departSpeed="10" />
<vehicle id="S2W41" type="standard_car" route="S2W" depart="84.39301139279236" departLane="random" departSpeed="10" />
<vehicle id="E2W42" type="standard_car" route="E2W" depart="85.1625943568214" departLane="random" departSpeed="10" />
<vehicle id="W2S43" type="standard_car" route="W2S" depart="85.49749161266861" departLane="random" departSpeed="10" />
<vehicle id="S2N44" type="standard_car" route="S2N" depart="85.99878043655825" departLane="random" departSpeed="10" />
<vehicle id="N2W45" type="standard_car" route="N2W" depart="86.52539449634027" departLane="random" departSpeed="10" />
<vehicle id="N2W46" type="standard_car" route="N2W" depart="86.60526974312701" departLane="random" departSpeed="10" />
<vehicle id="W2N47" type="standard_car" route="W2N" depart="88.0511996574583" departLane="random" departSpeed="10" />
<vehicle id="S2N48" type="standard_car" route="S2N" depart="91.7289223970961" departLane="random" departSpeed="10" />
<vehicle id="E2W49" type="standard_car" route="E2W" depart="92.65628043121623" departLane="random" departSpeed="10" />
<vehicle id="E2W50" type="standard_car" route="E2W" depart="92.75069237966834" departLane="random" departSpeed="10" />
<vehicle id="E2N51" type="standard_car" route="E2N" depart="92.99711026010982" departLane="random" departSpeed="10" />
<vehicle id="W2N52" type="standard_car" route="W2N" depart="94.16026627526696" departLane="random" departSpeed="10" />
<vehicle id="W2E53" type="standard_car" route="W2E" depart="94.36980861367819" departLane="random" departSpeed="10" />
<vehicle id="N2S54" type="standard_car" route="N2S" depart="94.95711219219716" departLane="random" departSpeed="10" />
<vehicle id="W2N55" type="standard_car" route="W2N" depart="95.07781174343971" departLane="random" departSpeed="10" />
<vehicle id="E2S56" type="standard_car" route="E2S" depart="96.02838420881726" departLane="random" departSpeed="10" />
<vehicle id="W2E57" type="standard_car" route="W2E" depart="97.48086665090607" departLane="random" departSpeed="10" />
<vehicle id="E2W58" type="standard_car" route="E2W" depart="97.55960997828123" departLane="random" departSpeed="10" />
<vehicle id="N2E59" type="standard_car" route="N2E" depart="97.76549169773064" departLane="random" departSpeed="10" />
<vehicle id="W2N60" type="standard_car" route="W2N" depart="97.88197071864633" departLane="random" departSpeed="10" />
<vehicle id="S2N61" type="standard_car" route="S2N" depart="100.66634098250752" departLane="random" departSpeed="10" />
<vehicle id="N2E62" type="standard_car" route="N2E" depart="103.09526843666971" departLane="random" departSpeed="10" />
<vehicle id="S2W63" type="standard_car" route="S2W" depart="103.11496021681523" departLane="random" departSpeed="10" />
<vehicle id="E2W64" type="standard_car" route="E2W" depart="103.237870072784" departLane="random" departSpeed="10" />
<vehicle id="S2E65" type="standard_car" route="S2E" depart="104.22878157840235" departLane="random" departSpeed="10" />
<vehicle id="W2E66" type="standard_car" route="W2E" depart="104.73841616124598" departLane="random" departSpeed="10" />
<vehicle id="W2E67" type="standard_car" route="W2E" depart="107.83079644747632" departLane="random" departSpeed="10" />
<vehicle id="S2E68" type="standard_car" route="S2E" depart="109.65950134340841" departLane="random" departSpeed="10" />
<vehicle id="W2E69" type="standard_car" route="W2E" depart="110.70061119019589" departLane="random" departSpeed="10" />
<vehicle id="E2W70" type="standard_car" route="E2W" depart="110.77046653844671" departLane="random" departSpeed="10" />
<vehicle id="E2N71" type="standard_car" route="E2N" depart="111.4788042846877" departLane="random" departSpeed="10" />
<vehicle id="W2N72" type="standard_car" route="W2N" depart="112.27166026380078" departLane="random" departSpeed="10" />
<vehicle id="S2E73" type="standard_car" route="S2E" depart="112.49016508103976" departLane="random" departSpeed="10" />
<vehicle id="S2E74" type="standard_car" route="S2E" depart="114.91444240141502" departLane="random" departSpeed="10" />
<vehicle id="S2N75" type="standard_car" route="S2N" depart="115.44277704407924" departLane="random" departSpeed="10" />
<vehicle id="N2S76" type="standard_car" route="N2S" depart="118.81261576278393" departLane="random" departSpeed="10" />
<vehicle id="N2S77" type="standard_car" route="N2S" depart="123.36003195119015" departLane="random" departSpeed="10" />
<vehicle id="N2E78" type="standard_car" route="N2E" depart="127.26295111809063" departLane="random" departSpeed="10" />
<vehicle id="W2N79" type="standard_car" route="W2N" depart="128.5897151723361" departLane="random" departSpeed="10" />
<vehicle id="W2E80" type="standard_car" route="W2E" depart="128.77166503542944" departLane="random" departSpeed="10" />
<vehicle id="N2S81" type="standard_car" route="N2S" depart="132.30417397786647" departLane="random" departSpeed="10" />
<vehicle id="N2E82" type="standard_car" route="N2E" depart="132.5061789079488" departLane="random" departSpeed="10" />
<vehicle id="S2N83" type="standard_car" route="S2N" depart="134.08919570321842" departLane="random" departSpeed="10" />
<vehicle id="W2E84" type="standard_car" route="W2E" depart="134.58055927190924" departLane="random" departSpeed="10" />
<vehicle id="W2N85" type="standard_car" route="W2N" depart="135.49973305360442" departLane="random" departSpeed="10" />
<vehicle id="S2N86" type="standard_car" route="S2N" depart="139.61164003069337" departLane="random" departSpeed="10" />
<vehicle id="N2E87" type="standard_car" route="N2E" depart="142.2940188184113" departLane="random" departSpeed="10" />
<vehicle id="S2W88" type="standard_car" route="S2W" depart="144.5172652335218" departLane="random" departSpeed="10" />
<vehicle id="N2E89" type="standard_car" route="N2E" depart="147.2800768014406" departLane="random" departSpeed="10" />
<vehicle id="E2W90" type="standard_car" route="E2W" depart="149.7697578426323" departLane="random" departSpeed="10" />
<vehicle id="E2W91" type="standard_car" route="E2W" depart="150.29714756913307" departLane="random" departSpeed="10" />
<vehicle id="W2E92" type="standard_car" route="W2E" depart="151.9513581644607" departLane="random" departSpeed="10" />
<vehicle id="W2S93" type="standard_car" route="W2S" depart="152.09757127897407" departLane="random" departSpeed="10" />
<vehicle id="W2E94" type="standard_car" route="W2E" depart="153.47924412463854" departLane="random" departSpeed="10" />
<vehicle id="N2S95" type="standard_car" route="N2S" depart="154.48262487214126" departLane="random" departSpeed="10" />
<vehicle id="N2W96" type="standard_car" route="N2W" depart="154.6359715850045" departLane="random" departSpeed="10" />
<vehicle id="E2S97" type="standard_car" route="E2S" depart="154.78495008261777" departLane="random" departSpeed="10" />
<vehicle id="W2N98" type="standard_car" route="W2N" depart="155.7087975715809" departLane="random" departSpeed="10" />
<vehicle id="S2N99" type="standard_car" route="S2N" depart="155.76176005107578" departLane="random" departSpeed="10" />
<vehicle id="N2S100" type="standard_car" route="N2S" depart="158.20641081964757" departLane="random" departSpeed="10" />
<vehicle id="N2E101" type="standard_car" route="N2E" depart="159.232072908004" departLane="random" departSpeed="10" />
<vehicle id="E2N102" type="standard_car" route="E2N" depart="159.5080986336416" departLane="random" departSpeed="10" />
<vehicle id="W2S103" type="standard_car" route="W2S" depart="160.18622375398962" departLane="random" departSpeed="10" />
<vehicle id="W2E104" type="standard_car" route="W2E" depart="162.04973920835937" departLane="random" departSpeed="10" />
<vehicle id="W2N105" type="standard_car" route="W2N" depart="162.12551877744113" departLane="random" departSpeed="10" />
<vehicle id="E2N106" type="standard_car" route="E2N" depart="164.51608502349666" departLane="random" departSpeed="10" />
<vehicle id="N2S107" type="standard_car" route="N2S" depart="164.77388059154708" departLane="random" departSpeed="10" />
<vehicle id="N2S108" type="standard_car" route="N2S" depart="165.14183704488264" departLane="random" departSpeed="10" />
<vehicle id="E2W109" type="standard_car" route="E2W" depart="166.41092560907074" departLane="random" departSpeed="10" />
<vehicle id="N2E110" type="standard_car" route="N2E" depart="166.50955566872113" departLane="random" departSpeed="10" />
<vehicle id="N2S111" type="standard_car" route="N2S" depart="166.76643763731317" departLane="random" departSpeed="10" />
<vehicle id="E2S112" type="standard_car" route="E2S" depart="169.11782745865187" departLane="random" departSpeed="10" />
<vehicle id="N2S113" type="standard_car" route="N2S" depart="169.84725713912218" departLane="random" departSpeed="10" />
<vehicle id="N2S114" type="standard_car" route="N2S" depart="170.5605801225623" departLane="random" departSpeed="10" />
<vehicle id="E2S115" type="standard_car" route="E2S" depart="172.30919514415874" departLane="random" departSpeed="10" />
<vehicle id="E2W116" type="standard_car" route="E2W" depart="174.43746692699918" departLane="random" departSpeed="10" />
<vehicle id="W2E117" type="standard_car" route="W2E" depart="174.5393319911577" departLane="random" departSpeed="10" />
<vehicle id="E2W118" type="standard_car" route="E2W" depart="178.70504844088697" departLane="random" departSpeed="10" />
<vehicle id="S2N119" type="standard_car" route="S2N" depart="179.14786055086742" departLane="random" departSpeed="10" />
<vehicle id="N2S120" type="standard_car" route="N2S" depart="179.56131566757134" departLane="random" departSpeed="10" />
<vehicle id="S2W121" type="standard_car" route="S2W" depart="187.13566460302664" departLane="random" departSpeed="10" />
<vehicle id="S2W122" type="standard_car" route="S2W" depart="188.65190904971496" departLane="random" departSpeed="10" />
<vehicle id="W2E123" type="standard_car" route="W2E" depart="190.11917648721982" departLane="random" departSpeed="10" />
<vehicle id="W2E124" type="standard_car" route="W2E" depart="190.72403765017904" departLane="random" departSpeed="10" />
<vehicle id="E2W125" type="standard_car" route="E2W" depart="191.4866773833378" departLane="random" departSpeed="10" />
<vehicle id="W2S126" type="standard_car" route="W2S" depart="196.29105771354028" departLane="random" departSpeed="10" />
<vehicle id="N2W127" type="standard_car" route="N2W" depart="196.89847522510982" departLane="random" departSpeed="10" />
<vehicle id="N2S128" type="standard_car" route="N2S" depart="196.9470114491947" departLane="random" departSpeed="10" />
<vehicle id="N2S129" type="standard_car" route="N2S" depart="201.11002137741514" departLane="random" departSpeed="10" />
<vehicle id="W2S130" type="standard_car" route="W2S" depart="206.55147827469642" departLane="random" departSpeed="10" />
<vehicle id="N2W131" type="standard_car" route="N2W" depart="209.25298867143295" departLane="random" departSpeed="10" />
<vehicle id="W2S132" type="standard_car" route="W2S" depart="211.49857823253765" departLane="random" departSpeed="10" />
<vehicle id="E2N133" type="standard_car" route="E2N" depart="215.8885694014828" departLane="random" departSpeed="10" />
<vehicle id="N2S134" type="standard_car" route="N2S" depart="217.29270452833606" departLane="random" departSpeed="10" />
<vehicle id="W2N135" type="standard_car" route="W2N" depart="220.37567192928893" departLane="random" departSpeed="10" />
<vehicle id="S2W136" type="standard_car" route="S2W" depart="239.43109274225898" departLane="random" departSpeed="10" />
<vehicle id="W2S137" type="standard_car" route="W2S" depart="241.75381921631183" departLane="random" departSpeed="10" />
<vehicle id="W2N138" type="standard_car" route="W2N" depart="278.9908262345183" departLane="random" departSpeed="10" />
<vehicle id="E2W139" type="standard_car" route="E2W" depart="300.0" departLane="random" departSpeed="10" />
</routes>
