<?xml version="1.0" encoding="UTF-8"?>

            <routes xmlns:xsi="http://www.w3.org/2001/XMLSchema-instance">
   
            <vType accel="1.0" decel="4.5" id="standard_car" length="5.0" minGap="2.5" maxSpeed="25" sigma="0.5" />) 
            
            <route id="N2W" edges="-125514711 125514713"/>
            <route id="N2S" edges="-125514711 -125514709"/>
            <route id="N2E" edges="-125514711 -548975769"/>     
            <route id="W2N" edges="-125514713 125514711"/>
            <route id="W2E" edges="-125514713 -548975769"/>
            <route id="W2S" edges="-125514711 -125514709"/>
            <route id="S2W" edges="125514709 125514713"/>
            <route id="S2N" edges="125514709 125514711"/>
            <route id="S2E" edges="-125514711 -548975769"/>
            <route id="E2S" edges="548975769 -125514709"/>
            <route id="E2W" edges="548975769 125514713"/>
            <route id="E2N" edges="548975769 125514711"/>
            
<vehicle id="W2E0" type="standard_car" route="W2E" depart="26.45708000688558" departLane="random" departSpeed="10" />
<vehicle id="N2S1" type="standard_car" route="N2S" depart="37.190758868292605" departLane="random" departSpeed="10" />
<vehicle id="S2N2" type="standard_car" route="S2N" depart="43.70749324236949" departLane="random" departSpeed="10" />
<vehicle id="S2N3" type="standard_car" route="S2N" depart="45.01299610144653" departLane="random" departSpeed="10" />
<vehicle id="W2E4" type="standard_car" route="W2E" depart="46.6764224795331" departLane="random" departSpeed="10" />
<vehicle id="S2W5" type="standard_car" route="S2W" depart="52.36297112646128" departLane="random" departSpeed="10" />
<vehicle id="W2E6" type="standard_car" route="W2E" depart="54.25330807034324" departLane="random" departSpeed="10" />
<vehicle id="N2S7" type="standard_car" route="N2S" depart="55.06639076539138" departLane="random" departSpeed="10" />
<vehicle id="E2W8" type="standard_car" route="E2W" depart="56.92647364963183" departLane="random" departSpeed="10" />
<vehicle id="S2N9" type="standard_car" route="S2N" depart="62.4675501956672" departLane="random" departSpeed="10" />
<vehicle id="S2N10" type="standard_car" route="S2N" depart="63.17076096358328" departLane="random" departSpeed="10" />
<vehicle id="E2W11" type="standard_car" route="E2W" depart="63.41782359813551" departLane="random" departSpeed="10" />
<vehicle id="N2E12" type="standard_car" route="N2E" depart="63.90536591315844" departLane="random" departSpeed="10" />
<vehicle id="N2W13" type="standard_car" route="N2W" depart="67.30456601007441" departLane="random" departSpeed="10" />
<vehicle id="S2N14" type="standard_car" route="S2N" depart="67.51409267013793" departLane="random" departSpeed="10" />
<vehicle id="E2W15" type="standard_car" route="E2W" depart="71.51364333612234" departLane="random" departSpeed="10" />
<vehicle id="S2N16" type="standard_car" route="S2N" depart="72.62421481740417" departLane="random" departSpeed="10" />
<vehicle id="N2S17" type="standard_car" route="N2S" depart="77.8753722310016" departLane="random" departSpeed="10" />
<vehicle id="W2E18" type="standard_car" route="W2E" depart="80.99044827559834" departLane="random" departSpeed="10" />
<vehicle id="N2S19" type="standard_car" route="N2S" depart="86.79606580604482" departLane="random" departSpeed="10" />
<vehicle id="S2E20" type="standard_car" route="S2E" depart="89.02107490145225" departLane="random" departSpeed="10" />
<vehicle id="N2S21" type="standard_car" route="N2S" depart="95.03857387134505" departLane="random" departSpeed="10" />
<vehicle id="W2E22" type="standard_car" route="W2E" depart="96.24473485179374" departLane="random" departSpeed="10" />
<vehicle id="E2W23" type="standard_car" route="E2W" depart="98.18175093987125" departLane="random" departSpeed="10" />
<vehicle id="W2S24" type="standard_car" route="W2S" depart="98.73779872424238" departLane="random" departSpeed="10" />
<vehicle id="W2S25" type="standard_car" route="W2S" depart="103.34488372205583" departLane="random" departSpeed="10" />
<vehicle id="S2N26" type="standard_car" route="S2N" depart="104.08078501383241" departLane="random" departSpeed="10" />
<vehicle id="S2W27" type="standard_car" route="S2W" depart="111.8583028569112" departLane="random" departSpeed="10" />
<vehicle id="N2S28" type="standard_car" route="N2S" depart="114.80684211596821" departLane="random" departSpeed="10" />
<vehicle id="S2W29" type="standard_car" route="S2W" depart="114.99250222148227" departLane="random" departSpeed="10" />
<vehicle id="S2W30" type="standard_car" route="S2W" depart="115.33234322842968" departLane="random" departSpeed="10" />
<vehicle id="S2W31" type="standard_car" route="S2W" depart="116.0147469528994" departLane="random" departSpeed="10" />
<vehicle id="N2S32" type="standard_car" route="N2S" depart="116.19022988265789" departLane="random" departSpeed="10" />
<vehicle id="N2S33" type="standard_car" route="N2S" depart="120.90971989137071" departLane="random" departSpeed="10" />
<vehicle id="N2S34" type="standard_car" route="N2S" depart="121.22147587353955" departLane="random" departSpeed="10" />
<vehicle id="N2S35" type="standard_car" route="N2S" depart="121.94336444049314" departLane="random" departSpeed="10" />
<vehicle id="E2W36" type="standard_car" route="E2W" depart="122.2502851894071" departLane="random" departSpeed="10" />
<vehicle id="E2S37" type="standard_car" route="E2S" depart="122.91380324136556" departLane="random" departSpeed="10" />
<vehicle id="E2N38" type="standard_car" route="E2N" depart="128.51421059575026" departLane="random" departSpeed="10" />
<vehicle id="S2N39" type="standard_car" route="S2N" depart="133.8294864127938" departLane="random" departSpeed="10" />
<vehicle id="W2E40" type="standard_car" route="W2E" depart="139.25966551252722" departLane="random" departSpeed="10" />
<vehicle id="W2N41" type="standard_car" route="W2N" depart="139.39188529930541" departLane="random" departSpeed="10" />
<vehicle id="W2E42" type="standard_car" route="W2E" depart="141.28771167820216" departLane="random" departSpeed="10" />
<vehicle id="N2S43" type="standard_car" route="N2S" depart="142.27361935672056" departLane="random" departSpeed="10" />
<vehicle id="N2E44" type="standard_car" route="N2E" depart="145.6665212371873" departLane="random" departSpeed="10" />
<vehicle id="W2E45" type="standard_car" route="W2E" depart="166.2981936279871" departLane="random" departSpeed="10" />
<vehicle id="E2S46" type="standard_car" route="E2S" depart="166.72070101737188" departLane="random" departSpeed="10" />
<vehicle id="N2W47" type="standard_car" route="N2W" depart="170.20823764513193" departLane="random" departSpeed="10" />
<vehicle id="N2S48" type="standard_car" route="N2S" depart="179.7756325265349" departLane="random" departSpeed="10" />
<vehicle id="S2N49" type="standard_car" route="S2N" depart="180.4438688723688" departLane="random" departSpeed="10" />
<vehicle id="E2S50" type="standard_car" route="E2S" depart="187.20796782080643" departLane="random" departSpeed="10" />
<vehicle id="E2W51" type="standard_car" route="E2W" depart="189.62481607485" departLane="random" departSpeed="10" />
<vehicle id="W2E52" type="standard_car" route="W2E" depart="192.2000702855038" departLane="random" departSpeed="10" />
<vehicle id="S2N53" type="standard_car" route="S2N" depart="192.7838513719722" departLane="random" departSpeed="10" />
<vehicle id="W2E54" type="standard_car" route="W2E" depart="195.9919410151428" departLane="random" departSpeed="10" />
<vehicle id="S2E55" type="standard_car" route="S2E" depart="198.47083512856378" departLane="random" departSpeed="10" />
<vehicle id="S2N56" type="standard_car" route="S2N" depart="203.5746725948384" departLane="random" departSpeed="10" />
<vehicle id="S2N57" type="standard_car" route="S2N" depart="204.1000575093064" departLane="random" departSpeed="10" />
<vehicle id="E2W58" type="standard_car" route="E2W" depart="204.40908631481295" departLane="random" departSpeed="10" />
<vehicle id="E2W59" type="standard_car" route="E2W" depart="204.9032465418963" departLane="random" departSpeed="10" />
<vehicle id="S2W60" type="standard_car" route="S2W" depart="205.65257464706636" departLane="random" departSpeed="10" />
<vehicle id="S2E61" type="standard_car" route="S2E" depart="207.89436306413458" departLane="random" departSpeed="10" />
<vehicle id="W2E62" type="standard_car" route="W2E" depart="213.81955696308003" departLane="random" departSpeed="10" />
<vehicle id="W2E63" type="standard_car" route="W2E" depart="215.83645590363327" departLane="random" departSpeed="10" />
<vehicle id="N2S64" type="standard_car" route="N2S" depart="220.26968639486546" departLane="random" departSpeed="10" />
<vehicle id="E2W65" type="standard_car" route="E2W" depart="224.251488103975" departLane="random" departSpeed="10" />
<vehicle id="S2N66" type="standard_car" route="S2N" depart="227.86094593654963" departLane="random" departSpeed="10" />
<vehicle id="E2W67" type="standard_car" route="E2W" depart="229.65274335730356" departLane="random" departSpeed="10" />
<vehicle id="E2W68" type="standard_car" route="E2W" depart="237.29490562844992" departLane="random" departSpeed="10" />
<vehicle id="E2W69" type="standard_car" route="E2W" depart="242.3911530818832" departLane="random" departSpeed="10" />
<vehicle id="E2W70" type="standard_car" route="E2W" depart="242.507482056142" departLane="random" departSpeed="10" />
<vehicle id="E2W71" type="standard_car" route="E2W" depart="243.36858771036262" departLane="random" departSpeed="10" />
<vehicle id="W2S72" type="standard_car" route="W2S" depart="244.40520297199478" departLane="random" departSpeed="10" />
<vehicle id="W2S73" type="standard_car" route="W2S" depart="244.85660196325892" departLane="random" departSpeed="10" />
<vehicle id="N2S74" type="standard_car" route="N2S" depart="247.25748195595366" departLane="random" departSpeed="10" />
<vehicle id="E2S75" type="standard_car" route="E2S" depart="260.67845284367917" departLane="random" departSpeed="10" />
<vehicle id="E2W76" type="standard_car" route="E2W" depart="268.5412900481938" departLane="random" departSpeed="10" />
<vehicle id="W2E77" type="standard_car" route="W2E" depart="270.84598966381634" departLane="random" departSpeed="10" />
<vehicle id="W2S78" type="standard_car" route="W2S" depart="274.1009602935048" departLane="random" departSpeed="10" />
<vehicle id="W2E79" type="standard_car" route="W2E" depart="274.65387135104226" departLane="random" departSpeed="10" />
<vehicle id="E2W80" type="standard_car" route="E2W" depart="281.4843123391211" departLane="random" departSpeed="10" />
<vehicle id="S2N81" type="standard_car" route="S2N" depart="283.6981230146163" departLane="random" departSpeed="10" />
<vehicle id="S2N82" type="standard_car" route="S2N" depart="299.978220805345" departLane="random" departSpeed="10" />
<vehicle id="N2S83" type="standard_car" route="N2S" depart="310.02748309111814" departLane="random" departSpeed="10" />
<vehicle id="S2W84" type="standard_car" route="S2W" depart="313.5547202231415" departLane="random" departSpeed="10" />
<vehicle id="S2N85" type="standard_car" route="S2N" depart="321.7504844452013" departLane="random" departSpeed="10" />
<vehicle id="E2S86" type="standard_car" route="E2S" depart="337.8020367012983" departLane="random" departSpeed="10" />
<vehicle id="E2W87" type="standard_car" route="E2W" depart="340.1669808435903" departLane="random" departSpeed="10" />
<vehicle id="N2S88" type="standard_car" route="N2S" depart="341.8009378184767" departLane="random" departSpeed="10" />
<vehicle id="N2S89" type="standard_car" route="N2S" depart="351.2925176859971" departLane="random" departSpeed="10" />
<vehicle id="E2W90" type="standard_car" route="E2W" depart="365.799039723117" departLane="random" departSpeed="10" />
<vehicle id="S2N91" type="standard_car" route="S2N" depart="370.73801343885674" departLane="random" departSpeed="10" />
<vehicle id="E2W92" type="standard_car" route="E2W" depart="371.9700146653295" departLane="random" departSpeed="10" />
<vehicle id="S2N93" type="standard_car" route="S2N" depart="383.57582570070946" departLane="random" departSpeed="10" />
<vehicle id="E2W94" type="standard_car" route="E2W" depart="395.32868443460427" departLane="random" departSpeed="10" />
<vehicle id="S2N95" type="standard_car" route="S2N" depart="424.2684878969163" departLane="random" departSpeed="10" />
<vehicle id="E2W96" type="standard_car" route="E2W" depart="430.4667456165981" departLane="random" departSpeed="10" />
<vehicle id="W2E97" type="standard_car" route="W2E" depart="459.78999586387914" departLane="random" departSpeed="10" />
<vehicle id="E2W98" type="standard_car" route="E2W" depart="475.6020362115135" departLane="random" departSpeed="10" />
<vehicle id="N2S99" type="standard_car" route="N2S" depart="500.0" departLane="random" departSpeed="10" />
</routes>
