<?xml version="1.0" encoding="UTF-8"?>

            <routes xmlns:xsi="http://www.w3.org/2001/XMLSchema-instance">
   
            <vType accel="1.0" decel="4.5" id="standard_car" length="5.0" minGap="2.5" maxSpeed="25" sigma="0.5" />) 
            
            <route id="N2W" edges="-125514711 125514713"/>
            <route id="N2S" edges="-125514711 -125514709"/>
            <route id="N2E" edges="-125514711 -548975769"/>     
            <route id="W2N" edges="-125514713 125514711"/>
            <route id="W2E" edges="-125514713 -548975769"/>
            <route id="W2S" edges="-125514711 -125514709"/>
            <route id="S2W" edges="125514709 125514713"/>
            <route id="S2N" edges="125514709 125514711"/>
            <route id="S2E" edges="-125514711 -548975769"/>
            <route id="E2S" edges="548975769 -125514709"/>
            <route id="E2W" edges="548975769 125514713"/>
            <route id="E2N" edges="548975769 125514711"/>
            
<vehicle id="W2E0" type="standard_car" route="W2E" depart="17.27811616388589" departLane="random" departSpeed="10" />
<vehicle id="S2N1" type="standard_car" route="S2N" depart="22.291840537764315" departLane="random" departSpeed="10" />
<vehicle id="S2N2" type="standard_car" route="S2N" depart="22.770785122041527" departLane="random" departSpeed="10" />
<vehicle id="W2E3" type="standard_car" route="W2E" depart="23.95043499096544" departLane="random" departSpeed="10" />
<vehicle id="E2W4" type="standard_car" route="E2W" depart="25.637678746294373" departLane="random" departSpeed="10" />
<vehicle id="S2N5" type="standard_car" route="S2N" depart="26.292805897443206" departLane="random" departSpeed="10" />
<vehicle id="W2E6" type="standard_car" route="W2E" depart="27.831016224860612" departLane="random" departSpeed="10" />
<vehicle id="S2N7" type="standard_car" route="S2N" depart="29.905109847455275" departLane="random" departSpeed="10" />
<vehicle id="E2W8" type="standard_car" route="E2W" depart="30.012780317702042" departLane="random" departSpeed="10" />
<vehicle id="N2S9" type="standard_car" route="N2S" depart="39.752741897164945" departLane="random" departSpeed="10" />
<vehicle id="N2S10" type="standard_car" route="N2S" depart="39.870695785058274" departLane="random" departSpeed="10" />
<vehicle id="N2E11" type="standard_car" route="N2E" depart="40.25367774370733" departLane="random" departSpeed="10" />
<vehicle id="S2N12" type="standard_car" route="S2N" depart="40.9550330614418" departLane="random" departSpeed="10" />
<vehicle id="E2W13" type="standard_car" route="E2W" depart="41.05892523942132" departLane="random" departSpeed="10" />
<vehicle id="N2S14" type="standard_car" route="N2S" depart="41.323600416838836" departLane="random" departSpeed="10" />
<vehicle id="W2E15" type="standard_car" route="W2E" depart="43.019175746909326" departLane="random" departSpeed="10" />
<vehicle id="S2N16" type="standard_car" route="S2N" depart="43.79801625280651" departLane="random" departSpeed="10" />
<vehicle id="S2N17" type="standard_car" route="S2N" depart="45.099312690330436" departLane="random" departSpeed="10" />
<vehicle id="N2S18" type="standard_car" route="N2S" depart="45.32241389304389" departLane="random" departSpeed="10" />
<vehicle id="W2E19" type="standard_car" route="W2E" depart="45.41601933225906" departLane="random" departSpeed="10" />
<vehicle id="S2N20" type="standard_car" route="S2N" depart="45.68008445085367" departLane="random" departSpeed="10" />
<vehicle id="N2W21" type="standard_car" route="N2W" depart="46.31004169316147" departLane="random" departSpeed="10" />
<vehicle id="S2N22" type="standard_car" route="S2N" depart="47.593429288509384" departLane="random" departSpeed="10" />
<vehicle id="E2S23" type="standard_car" route="E2S" depart="48.5223939493403" departLane="random" departSpeed="10" />
<vehicle id="N2S24" type="standard_car" route="N2S" depart="48.97746162200492" departLane="random" departSpeed="10" />
<vehicle id="E2W25" type="standard_car" route="E2W" depart="50.523304042842184" departLane="random" departSpeed="10" />
<vehicle id="N2E26" type="standard_car" route="N2E" depart="58.4738670943652" departLane="random" departSpeed="10" />
<vehicle id="W2E27" type="standard_car" route="W2E" depart="58.819436088992994" departLane="random" departSpeed="10" />
<vehicle id="E2W28" type="standard_car" route="E2W" depart="59.39470987989224" departLane="random" departSpeed="10" />
<vehicle id="W2E29" type="standard_car" route="W2E" depart="63.84950878526355" departLane="random" departSpeed="10" />
<vehicle id="E2N30" type="standard_car" route="E2N" depart="64.31149756754762" departLane="random" departSpeed="10" />
<vehicle id="S2N31" type="standard_car" route="S2N" depart="64.34687151032385" departLane="random" departSpeed="10" />
<vehicle id="W2E32" type="standard_car" route="W2E" depart="64.69498386486927" departLane="random" departSpeed="10" />
<vehicle id="E2W33" type="standard_car" route="E2W" depart="64.81421407045961" departLane="random" departSpeed="10" />
<vehicle id="S2W34" type="standard_car" route="S2W" depart="65.16293091641145" departLane="random" departSpeed="10" />
<vehicle id="E2W35" type="standard_car" route="E2W" depart="66.46205529915187" departLane="random" departSpeed="10" />
<vehicle id="N2S36" type="standard_car" route="N2S" depart="67.25361820972773" departLane="random" departSpeed="10" />
<vehicle id="N2S37" type="standard_car" route="N2S" depart="67.25766785270685" departLane="random" departSpeed="10" />
<vehicle id="N2S38" type="standard_car" route="N2S" depart="67.71746774365187" departLane="random" departSpeed="10" />
<vehicle id="W2N39" type="standard_car" route="W2N" depart="70.63152723530867" departLane="random" departSpeed="10" />
<vehicle id="W2E40" type="standard_car" route="W2E" depart="71.1043667091499" departLane="random" departSpeed="10" />
<vehicle id="N2W41" type="standard_car" route="N2W" depart="77.05742534357228" departLane="random" departSpeed="10" />
<vehicle id="S2E42" type="standard_car" route="S2E" depart="80.39769441676819" departLane="random" departSpeed="10" />
<vehicle id="S2N43" type="standard_car" route="S2N" depart="81.8487941186466" departLane="random" departSpeed="10" />
<vehicle id="W2E44" type="standard_car" route="W2E" depart="82.0398163384596" departLane="random" departSpeed="10" />
<vehicle id="E2W45" type="standard_car" route="E2W" depart="82.11792242961882" departLane="random" departSpeed="10" />
<vehicle id="E2S46" type="standard_car" route="E2S" depart="82.86731804287713" departLane="random" departSpeed="10" />
<vehicle id="N2E47" type="standard_car" route="N2E" depart="83.91317803426804" departLane="random" departSpeed="10" />
<vehicle id="S2N48" type="standard_car" route="S2N" depart="84.13909208299451" departLane="random" departSpeed="10" />
<vehicle id="E2W49" type="standard_car" route="E2W" depart="85.07235833151807" departLane="random" departSpeed="10" />
<vehicle id="W2N50" type="standard_car" route="W2N" depart="86.78031229258369" departLane="random" departSpeed="10" />
<vehicle id="N2W51" type="standard_car" route="N2W" depart="88.03889633177121" departLane="random" departSpeed="10" />
<vehicle id="E2S52" type="standard_car" route="E2S" depart="88.14947219274542" departLane="random" departSpeed="10" />
<vehicle id="N2S53" type="standard_car" route="N2S" depart="88.23262609574243" departLane="random" departSpeed="10" />
<vehicle id="E2W54" type="standard_car" route="E2W" depart="88.79930787145561" departLane="random" departSpeed="10" />
<vehicle id="S2N55" type="standard_car" route="S2N" depart="90.32338668469535" departLane="random" departSpeed="10" />
<vehicle id="N2S56" type="standard_car" route="N2S" depart="96.48930452225343" departLane="random" departSpeed="10" />
<vehicle id="N2S57" type="standard_car" route="N2S" depart="97.1125611251211" departLane="random" departSpeed="10" />
<vehicle id="E2W58" type="standard_car" route="E2W" depart="98.3336475440861" departLane="random" departSpeed="10" />
<vehicle id="N2S59" type="standard_car" route="N2S" depart="98.78546157582403" departLane="random" departSpeed="10" />
<vehicle id="E2W60" type="standard_car" route="E2W" depart="99.18213546837029" departLane="random" departSpeed="10" />
<vehicle id="W2N61" type="standard_car" route="W2N" depart="100.28380257120743" departLane="random" departSpeed="10" />
<vehicle id="E2W62" type="standard_car" route="E2W" depart="100.64293875353457" departLane="random" departSpeed="10" />
<vehicle id="E2W63" type="standard_car" route="E2W" depart="101.29701720195368" departLane="random" departSpeed="10" />
<vehicle id="E2W64" type="standard_car" route="E2W" depart="102.89412732001647" departLane="random" departSpeed="10" />
<vehicle id="N2S65" type="standard_car" route="N2S" depart="103.09531221977328" departLane="random" departSpeed="10" />
<vehicle id="S2N66" type="standard_car" route="S2N" depart="104.71899488648184" departLane="random" departSpeed="10" />
<vehicle id="S2N67" type="standard_car" route="S2N" depart="105.85470166615198" departLane="random" departSpeed="10" />
<vehicle id="E2W68" type="standard_car" route="E2W" depart="106.9045546889099" departLane="random" departSpeed="10" />
<vehicle id="E2N69" type="standard_car" route="E2N" depart="109.81575323277578" departLane="random" departSpeed="10" />
<vehicle id="E2W70" type="standard_car" route="E2W" depart="110.8886369613389" departLane="random" departSpeed="10" />
<vehicle id="S2W71" type="standard_car" route="S2W" depart="119.01301537485" departLane="random" departSpeed="10" />
<vehicle id="S2E72" type="standard_car" route="S2E" depart="119.90086406422871" departLane="random" departSpeed="10" />
<vehicle id="E2W73" type="standard_car" route="E2W" depart="121.44307193773403" departLane="random" departSpeed="10" />
<vehicle id="E2W74" type="standard_car" route="E2W" depart="124.87525220714997" departLane="random" departSpeed="10" />
<vehicle id="W2E75" type="standard_car" route="W2E" depart="125.39911379500244" departLane="random" departSpeed="10" />
<vehicle id="W2N76" type="standard_car" route="W2N" depart="132.74277301247875" departLane="random" departSpeed="10" />
<vehicle id="W2E77" type="standard_car" route="W2E" depart="133.41101549196978" departLane="random" departSpeed="10" />
<vehicle id="E2S78" type="standard_car" route="E2S" depart="139.50305023515526" departLane="random" departSpeed="10" />
<vehicle id="N2S79" type="standard_car" route="N2S" depart="141.43535834284353" departLane="random" departSpeed="10" />
<vehicle id="N2E80" type="standard_car" route="N2E" depart="142.12456790021238" departLane="random" departSpeed="10" />
<vehicle id="N2E81" type="standard_car" route="N2E" depart="143.0409276911908" departLane="random" departSpeed="10" />
<vehicle id="S2N82" type="standard_car" route="S2N" depart="147.0915009238492" departLane="random" departSpeed="10" />
<vehicle id="S2N83" type="standard_car" route="S2N" depart="154.234419208836" departLane="random" departSpeed="10" />
<vehicle id="N2S84" type="standard_car" route="N2S" depart="156.43120376111338" departLane="random" departSpeed="10" />
<vehicle id="W2S85" type="standard_car" route="W2S" depart="162.1525429740805" departLane="random" departSpeed="10" />
<vehicle id="S2N86" type="standard_car" route="S2N" depart="165.21320535784344" departLane="random" departSpeed="10" />
<vehicle id="E2N87" type="standard_car" route="E2N" depart="165.56772204016582" departLane="random" departSpeed="10" />
<vehicle id="W2S88" type="standard_car" route="W2S" depart="171.05123360989373" departLane="random" departSpeed="10" />
<vehicle id="W2E89" type="standard_car" route="W2E" depart="182.3126464374091" departLane="random" departSpeed="10" />
<vehicle id="E2W90" type="standard_car" route="E2W" depart="200.0" departLane="random" departSpeed="10" />
</routes>
