<?xml version="1.0" encoding="UTF-8"?>

            <routes xmlns:xsi="http://www.w3.org/2001/XMLSchema-instance">
   
            <vType accel="1.0" decel="4.5" id="standard_car" length="5.0" minGap="2.5" maxSpeed="25" sigma="0.5" />) 
            
            <route id="N2W" edges="-125514711 125514713"/>
            <route id="N2S" edges="-125514711 -125514709"/>
            <route id="N2E" edges="-125514711 -548975769"/>     
            <route id="W2N" edges="-125514713 125514711"/>
            <route id="W2E" edges="-125514713 -548975769"/>
            <route id="W2S" edges="-125514711 -125514709"/>
            <route id="S2W" edges="125514709 125514713"/>
            <route id="S2N" edges="125514709 125514711"/>
            <route id="S2E" edges="-125514711 -548975769"/>
            <route id="E2S" edges="548975769 -125514709"/>
            <route id="E2W" edges="548975769 125514713"/>
            <route id="E2N" edges="548975769 125514711"/>
            
<vehicle id="N2W0" type="standard_car" route="N2W" depart="12.692422609332937" departLane="random" departSpeed="10" />
<vehicle id="S2N1" type="standard_car" route="S2N" depart="20.40768903724868" departLane="random" departSpeed="10" />
<vehicle id="E2W2" type="standard_car" route="E2W" depart="38.64228803358672" departLane="random" departSpeed="10" />
<vehicle id="W2N3" type="standard_car" route="W2N" depart="51.667277177305685" departLane="random" departSpeed="10" />
<vehicle id="W2E4" type="standard_car" route="W2E" depart="63.020008365962454" departLane="random" departSpeed="10" />
<vehicle id="E2W5" type="standard_car" route="E2W" depart="82.8309417475539" departLane="random" departSpeed="10" />
<vehicle id="E2W6" type="standard_car" route="E2W" depart="90.91535896056224" departLane="random" departSpeed="10" />
<vehicle id="W2E7" type="standard_car" route="W2E" depart="92.74420880645741" departLane="random" departSpeed="10" />
<vehicle id="W2E8" type="standard_car" route="W2E" depart="93.05946955939004" departLane="random" departSpeed="10" />
<vehicle id="W2S9" type="standard_car" route="W2S" depart="97.73873823693819" departLane="random" departSpeed="10" />
<vehicle id="N2S10" type="standard_car" route="N2S" depart="98.66347236939018" departLane="random" departSpeed="10" />
<vehicle id="E2W11" type="standard_car" route="E2W" depart="101.48831802731854" departLane="random" departSpeed="10" />
<vehicle id="E2W12" type="standard_car" route="E2W" depart="101.58020946197739" departLane="random" departSpeed="10" />
<vehicle id="E2N13" type="standard_car" route="E2N" depart="103.49835323895992" departLane="random" departSpeed="10" />
<vehicle id="N2S14" type="standard_car" route="N2S" depart="103.97467097530928" departLane="random" departSpeed="10" />
<vehicle id="E2S15" type="standard_car" route="E2S" depart="105.79151886293215" departLane="random" departSpeed="10" />
<vehicle id="E2W16" type="standard_car" route="E2W" depart="108.23081945429918" departLane="random" departSpeed="10" />
<vehicle id="N2S17" type="standard_car" route="N2S" depart="109.09394618441009" departLane="random" departSpeed="10" />
<vehicle id="W2E18" type="standard_car" route="W2E" depart="110.17485387377752" departLane="random" departSpeed="10" />
<vehicle id="E2W19" type="standard_car" route="E2W" depart="111.14121992535648" departLane="random" departSpeed="10" />
<vehicle id="S2N20" type="standard_car" route="S2N" depart="114.76086881477728" departLane="random" departSpeed="10" />
<vehicle id="S2E21" type="standard_car" route="S2E" depart="117.83056233889158" departLane="random" departSpeed="10" />
<vehicle id="N2S22" type="standard_car" route="N2S" depart="121.54520880432567" departLane="random" departSpeed="10" />
<vehicle id="W2N23" type="standard_car" route="W2N" depart="124.05041515767725" departLane="random" departSpeed="10" />
<vehicle id="E2W24" type="standard_car" route="E2W" depart="129.9436738289522" departLane="random" departSpeed="10" />
<vehicle id="S2N25" type="standard_car" route="S2N" depart="130.11862241041842" departLane="random" departSpeed="10" />
<vehicle id="S2N26" type="standard_car" route="S2N" depart="130.31102359453294" departLane="random" departSpeed="10" />
<vehicle id="W2E27" type="standard_car" route="W2E" depart="134.50747977785815" departLane="random" departSpeed="10" />
<vehicle id="E2W28" type="standard_car" route="E2W" depart="138.07412331667373" departLane="random" departSpeed="10" />
<vehicle id="W2E29" type="standard_car" route="W2E" depart="142.05740399270073" departLane="random" departSpeed="10" />
<vehicle id="S2N30" type="standard_car" route="S2N" depart="143.2964787471533" departLane="random" departSpeed="10" />
<vehicle id="E2W31" type="standard_car" route="E2W" depart="145.2575678460681" departLane="random" departSpeed="10" />
<vehicle id="S2N32" type="standard_car" route="S2N" depart="151.15730185138253" departLane="random" departSpeed="10" />
<vehicle id="E2W33" type="standard_car" route="E2W" depart="156.69932024297853" departLane="random" departSpeed="10" />
<vehicle id="W2E34" type="standard_car" route="W2E" depart="157.12667613722328" departLane="random" departSpeed="10" />
<vehicle id="N2S35" type="standard_car" route="N2S" depart="157.4181575086924" departLane="random" departSpeed="10" />
<vehicle id="S2N36" type="standard_car" route="S2N" depart="161.89269290393685" departLane="random" departSpeed="10" />
<vehicle id="S2W37" type="standard_car" route="S2W" depart="162.0711462606302" departLane="random" departSpeed="10" />
<vehicle id="E2W38" type="standard_car" route="E2W" depart="162.80190829305175" departLane="random" departSpeed="10" />
<vehicle id="E2N39" type="standard_car" route="E2N" depart="163.7308847999043" departLane="random" departSpeed="10" />
<vehicle id="E2W40" type="standard_car" route="E2W" depart="170.14618913477656" departLane="random" departSpeed="10" />
<vehicle id="S2N41" type="standard_car" route="S2N" depart="180.33139835181788" departLane="random" departSpeed="10" />
<vehicle id="N2S42" type="standard_car" route="N2S" depart="183.54312949029944" departLane="random" departSpeed="10" />
<vehicle id="S2N43" type="standard_car" route="S2N" depart="185.26374642896275" departLane="random" departSpeed="10" />
<vehicle id="E2W44" type="standard_car" route="E2W" depart="191.7160444385152" departLane="random" departSpeed="10" />
<vehicle id="S2N45" type="standard_car" route="S2N" depart="193.11126803538204" departLane="random" departSpeed="10" />
<vehicle id="S2E46" type="standard_car" route="S2E" depart="194.39090239779352" departLane="random" departSpeed="10" />
<vehicle id="S2N47" type="standard_car" route="S2N" depart="198.97745846512163" departLane="random" departSpeed="10" />
<vehicle id="E2W48" type="standard_car" route="E2W" depart="200.85778281313327" departLane="random" departSpeed="10" />
<vehicle id="W2E49" type="standard_car" route="W2E" depart="207.62891405956043" departLane="random" departSpeed="10" />
<vehicle id="W2E50" type="standard_car" route="W2E" depart="207.6497182119059" departLane="random" departSpeed="10" />
<vehicle id="N2S51" type="standard_car" route="N2S" depart="207.74463030143082" departLane="random" departSpeed="10" />
<vehicle id="N2S52" type="standard_car" route="N2S" depart="210.10326244056256" departLane="random" departSpeed="10" />
<vehicle id="W2N53" type="standard_car" route="W2N" depart="211.53775527200492" departLane="random" departSpeed="10" />
<vehicle id="W2E54" type="standard_car" route="W2E" depart="214.61100585267474" departLane="random" departSpeed="10" />
<vehicle id="S2W55" type="standard_car" route="S2W" depart="219.66486628268623" departLane="random" departSpeed="10" />
<vehicle id="S2N56" type="standard_car" route="S2N" depart="220.55609484693758" departLane="random" departSpeed="10" />
<vehicle id="E2W57" type="standard_car" route="E2W" depart="221.48523026275853" departLane="random" departSpeed="10" />
<vehicle id="E2W58" type="standard_car" route="E2W" depart="222.12524846311527" departLane="random" departSpeed="10" />
<vehicle id="W2N59" type="standard_car" route="W2N" depart="224.0924496069449" departLane="random" departSpeed="10" />
<vehicle id="E2W60" type="standard_car" route="E2W" depart="224.82617169756548" departLane="random" departSpeed="10" />
<vehicle id="W2E61" type="standard_car" route="W2E" depart="225.71674290685357" departLane="random" departSpeed="10" />
<vehicle id="E2W62" type="standard_car" route="E2W" depart="228.9791511237135" departLane="random" departSpeed="10" />
<vehicle id="S2N63" type="standard_car" route="S2N" depart="230.53917517217891" departLane="random" departSpeed="10" />
<vehicle id="W2N64" type="standard_car" route="W2N" depart="231.16779278831538" departLane="random" departSpeed="10" />
<vehicle id="N2S65" type="standard_car" route="N2S" depart="233.8502802557036" departLane="random" departSpeed="10" />
<vehicle id="W2E66" type="standard_car" route="W2E" depart="238.85314512584975" departLane="random" departSpeed="10" />
<vehicle id="W2S67" type="standard_car" route="W2S" depart="241.1995854457589" departLane="random" departSpeed="10" />
<vehicle id="N2S68" type="standard_car" route="N2S" depart="241.39306960735567" departLane="random" departSpeed="10" />
<vehicle id="N2W69" type="standard_car" route="N2W" depart="243.46141110233089" departLane="random" departSpeed="10" />
<vehicle id="S2N70" type="standard_car" route="S2N" depart="244.2383353097606" departLane="random" departSpeed="10" />
<vehicle id="S2W71" type="standard_car" route="S2W" depart="245.50130060157602" departLane="random" departSpeed="10" />
<vehicle id="E2W72" type="standard_car" route="E2W" depart="256.0153754839278" departLane="random" departSpeed="10" />
<vehicle id="S2N73" type="standard_car" route="S2N" depart="260.2510348822921" departLane="random" departSpeed="10" />
<vehicle id="N2S74" type="standard_car" route="N2S" depart="267.8852902080941" departLane="random" departSpeed="10" />
<vehicle id="E2W75" type="standard_car" route="E2W" depart="271.2724261919214" departLane="random" departSpeed="10" />
<vehicle id="S2N76" type="standard_car" route="S2N" depart="274.83346643555103" departLane="random" departSpeed="10" />
<vehicle id="W2E77" type="standard_car" route="W2E" depart="276.526757320437" departLane="random" departSpeed="10" />
<vehicle id="N2S78" type="standard_car" route="N2S" depart="291.9746176276073" departLane="random" departSpeed="10" />
<vehicle id="S2N79" type="standard_car" route="S2N" depart="295.85835475961943" departLane="random" departSpeed="10" />
<vehicle id="N2S80" type="standard_car" route="N2S" depart="296.44061441297004" departLane="random" departSpeed="10" />
<vehicle id="E2W81" type="standard_car" route="E2W" depart="299.38787550527394" departLane="random" departSpeed="10" />
<vehicle id="W2E82" type="standard_car" route="W2E" depart="304.2935161511654" departLane="random" departSpeed="10" />
<vehicle id="E2W83" type="standard_car" route="E2W" depart="304.773054443436" departLane="random" departSpeed="10" />
<vehicle id="N2S84" type="standard_car" route="N2S" depart="306.9293726313516" departLane="random" departSpeed="10" />
<vehicle id="N2E85" type="standard_car" route="N2E" depart="313.96760456035213" departLane="random" departSpeed="10" />
<vehicle id="E2N86" type="standard_car" route="E2N" depart="326.0550274650029" departLane="random" departSpeed="10" />
<vehicle id="N2S87" type="standard_car" route="N2S" depart="329.27862187128216" departLane="random" departSpeed="10" />
<vehicle id="E2W88" type="standard_car" route="E2W" depart="332.4843761812112" departLane="random" departSpeed="10" />
<vehicle id="W2E89" type="standard_car" route="W2E" depart="334.6111869514809" departLane="random" departSpeed="10" />
<vehicle id="N2E90" type="standard_car" route="N2E" depart="337.6008858425906" departLane="random" departSpeed="10" />
<vehicle id="E2W91" type="standard_car" route="E2W" depart="351.9634512267422" departLane="random" departSpeed="10" />
<vehicle id="N2E92" type="standard_car" route="N2E" depart="352.01239434455215" departLane="random" departSpeed="10" />
<vehicle id="S2N93" type="standard_car" route="S2N" depart="373.4003380889077" departLane="random" departSpeed="10" />
<vehicle id="N2S94" type="standard_car" route="N2S" depart="374.1368562275127" departLane="random" departSpeed="10" />
<vehicle id="E2W95" type="standard_car" route="E2W" depart="377.03150177412874" departLane="random" departSpeed="10" />
<vehicle id="S2N96" type="standard_car" route="S2N" depart="377.78882148601076" departLane="random" departSpeed="10" />
<vehicle id="W2E97" type="standard_car" route="W2E" depart="379.2377906881585" departLane="random" departSpeed="10" />
<vehicle id="W2S98" type="standard_car" route="W2S" depart="406.29813060601373" departLane="random" departSpeed="10" />
<vehicle id="S2N99" type="standard_car" route="S2N" depart="500.0" departLane="random" departSpeed="10" />
</routes>
